##TITLE=Ref molecule 4
Group Service
H1_Day16 CDCl3 /mnt/nmrdata/Service n82265as 13
##JCAMPDX= 6.0         $$ Bruker NMR JCAMP-DX V2.0
##DATA TYPE= NMR SPECTRUM
##DATA CLASS= XYDATA
##ORIGIN= Bruker BioSpin GmbH
##OWNER= nmrsu
##LONG DATE= 2024/11/30 04:59:11+0000
$$ TopSpin 4.3.0
$$ 2024-12-03 11:27:18.948 +0000  DS\n82265as@E-10LXXG2310KN9
$$ Compression mode = diff/dup
##.OBSERVE FREQUENCY= 400.07240042
##.OBSERVE NUCLEUS= ^1H
##.ACQUISITION MODE= SIMULTANEOUS (DQD)
##.ACQUISITION SCHEME= undefined
##.AVERAGES= 16
##.DIGITISER RES= 22
##SPECTROMETER/DATA SYSTEM= spect
##.PULSE SEQUENCE= zg30
##.SOLVENT NAME= CDCl3
##.SHIFT REFERENCE= INTERNAL, CDCl3, 1, 16.27781
##AUDIT TRAIL= $$ (NUMBER, WHEN, WHO, WHERE, PROCESS, VERSION, WHAT)
$$ ##TITLE= Audit trail, TopSpin 3.6.2
$$ ##JCAMPDX= 5.01
$$ ##ORIGIN= Bruker BioSpin GmbH
$$ ##OWNER= nmrsu
$$ $$ /mnt/nasr/NMR/Service/data/n82265as/nmr/20241128-1542-B400_B.11-13/10/pdata/1/auditp.txt
$$ ##AUDIT TRAIL=  $$ (NUMBER, WHEN, WHO, WHERE, PROCESS, VERSION, WHAT)
(   1,<2024-11-30 04:59:11.703 +0000>,<nmrsu>,<cyan.ch.man.ac.uk>,<go4>,<TopSpin 3.6.2>,
      <created by zg
	started at 2024-11-30 04:57:39.177 +0000,
	POWCHK enabled, PULCHK disabled,
       configuration hash MD5:
       8C 5D 46 0C A2 3E D5 4A BD 0F A1 73 8E 42 3A 9B
       data hash MD5: 64K
       26 AF 27 F5 63 C6 F3 54 7B FB 2E 1D 11 3F B9 E8>)
(   2,<2024-11-30 04:59:11.743 +0000>,<nmrsu>,<cyan.ch.man.ac.uk>,<audit>,<TopSpin 3.6.2>,
      <user comment:
       ICON-NMR User ID: n82265as
       data hash MD5: 64K
       26 AF 27 F5 63 C6 F3 54 7B FB 2E 1D 11 3F B9 E8>)
(   3,<2024-11-30 04:59:12.803 +0000>,<nmrsu>,<cyan.ch.man.ac.uk>,<proc1d>,<TopSpin 3.6.2>,
      <Start of raw data processing
       ef LB = 0.3 FT_mod = 6 PKNL = 1 SI = 32K 
       data hash MD5: 32K
       EC 9B DB DD 95 68 B2 B5 D0 87 6E 6A DA 43 6F 89>)
(   4,<2024-11-30 04:59:12.974 +0000>,<nmrsu>,<cyan.ch.man.ac.uk>,<proc1d>,<TopSpin 3.6.2>,
      <apk 
       data hash MD5: 32K
       96 C2 EF 9C 7D E0 E1 7C 5E C4 28 2D 5B E9 AB 7F>)
(   5,<2024-11-30 04:59:13.001 +0000>,<nmrsu>,<cyan.ch.man.ac.uk>,<proc1d>,<TopSpin 3.6.2>,
      <abs ABSG = 5 
       data hash MD5: 32K
       1C 82 A4 B3 1F 9B D9 85 56 E2 F1 42 4F 5F 88 4C>)
(   6,<2024-11-30 04:59:13.768 +0000>,<nmrsu>,<cyan.ch.man.ac.uk>,<dirdata>,<TopSpin 3.6.2>,
      <wrpa from 1 10 "20241128-1542-B400_B.11-13" "/mnt/nmrdata/Service/data/n82265as/nmr"
       data hash MD5: 32K
       1C 82 A4 B3 1F 9B D9 85 56 E2 F1 42 4F 5F 88 4C>)
$$ $$ C:/Users/n82265as/The University of Manchester Dropbox/Aminata Sakho/Winter chemicals/data/original_good/20241128-1542-B400_B.11-13/10/pdata/1/auditp.txt
(   7,<2024-12-03T11:26:40.658+0000>,<DS\n82265as>,<E-10LXXG2310KN9>,<proc1d>,<TopSpin 4.3.0>,
      <apk 
       data hash MD5: 32K
       77 80 79 42 27 80 5A 3F AD 19 F2 78 F9 FA EA E0>)
(   8,<2024-12-03T11:26:42.029+0000>,<DS\n82265as>,<E-10LXXG2310KN9>,<proc1d>,<TopSpin 4.3.0>,
      <apks 
       data hash MD5: 32K
       AF F4 72 1A 63 31 B8 38 D3 2E B9 5A 50 27 30 50>)
(   9,<2024-12-03T11:26:44.087+0000>,<DS\n82265as>,<E-10LXXG2310KN9>,<proc1d>,<TopSpin 4.3.0>,
      <abs n ABSG = 5 
       data hash MD5: 32K
       A9 B2 77 B0 CE 46 AA E8 BC CB F8 E0 DB EA 22 4C>)
$$ ##END=
$$ 
$$ $$ hash MD5
$$ $$ 40 2C B5 90 45 E3 35 45 3D EE 90 57 EF 34 57 E0
##$RELAX= 
##$BRUKER FILE EXP=format.temp
$$ EDIT_PAR COMMAND FILE
$$ 
$$ DI_MODE         LONG
$$ ED_ENTRY        ACQU
$$ ORDER           FILE
$$ 
$$ 
$$ HEADER		"F2 - Acquisition Parameters"
$$ T_NAME		Date_
$$ 		TYPE	R64
$$ 		CLASS	ACQU
$$ 		SUBRANGE 0.0 50000000
$$ 		REL	"Date_=itodate(DATE)"
$$ 		INV_REL	"DATE=datetoi(Date_,DATE)"
$$ 		FORMAT	"%14.0f"
$$ 		TEXT	" "
$$ END
$$ T_NAME		Time
$$ 		TYPE	R32
$$ 		CLASS	ACQU
$$ 		SUBRANGE 0.0 1000000
$$ 		REL	"Time=itotime(DATE)"
$$ 		INV_REL	"DATE=timetoi(Time,DATE)"
$$ 		FORMAT	"%14.2f h"
$$ 		TEXT	" "
$$ END
$$ NAME		INSTRUM
$$ 		TEXT	" "
$$ END
$$ NAME		PROBHD
$$ 		FORMAT	"%14.14s"
$$ 		TEXT	" "
$$ END
$$ NAME		PULPROG
$$ 		TEXT	" "
$$ END
$$ NAME		TD
$$ 		TEXT	" "
$$ END
$$ NAME		SOLVENT
$$ 		TEXT	" "
$$ END
$$ NAME		NS
$$ 		TEXT	" "
$$ END
$$ NAME		DS
$$ 		TEXT	" "
$$ END
$$ T_NAME		SWH
$$ 		TYPE	R32
$$ 		CLASS	ACQU
$$ 		SUBRANGE 0.0 1e8
$$ 		REL	"SWH=SW*SFO1"
$$ 		INV_REL "SW=SWH/SFO1"
$$ 		UNIT	"Hz"
$$ 		FORMAT	"%14.3f Hz"
$$ 		TEXT	" "
$$ END
$$ T_NAME          FIDRES
$$                 TYPE    R32
$$                 CLASS   ACQU
$$                 SUBRANGE 0.0 100000
$$                 REL     "FIDRES=2*SW*SFO1/TD"
$$                 INV_REL "TD = nextpow(2*SW*SFO1/FIDRES)"
$$ 		UNIT	"Hz"
$$ 		FORMAT	"%14.6f Hz"
$$ 		TEXT	" "
$$ END
$$ T_NAME          AQ
$$ 		TYPE	R32
$$ 		CLASS	ACQU
$$ 		SUBRANGE 0.0 1000
$$ 		REL	"AQ=aqcalc(SW,SFO1,TD,DIGTYP)"
$$ 		INV_REL	"TD=tdcalc(SW,SFO1,1.0e6*AQ,DIGTYP)"
$$ 		UNIT	"sec"
$$ 		FORMAT	"%14.7f sec"
$$ 		TEXT	" "
$$ END
$$ NAME		RG
$$ 		TEXT	" "
$$ END
$$ T_NAME          DW
$$ 		TYPE	R32
$$ 		CLASS	ACQU
$$ 		SUBRANGE 0.0 1000000
$$ 		REL	"DW=1/(2*SW*SFO1)"
$$ 		INV_REL	"SW=1000000/(2*(0.005+DW)*SFO1)"
$$ 		UNIT	"usec"
$$ 		FORMAT	"%14.3lf usec"
$$ 		TEXT	" "
$$ END
$$ NAME		DE
$$ 		FORMAT	"%14.2f usec"
$$ 		TEXT	" "
$$ END
$$ NAME		TE
$$ 		FORMAT	"%14.1f K"
$$ 		TEXT	" "
$$ END
$$ T_NAME		D1
$$ 		TYPE	R32
$$ 		CLASS	ACQU
$$ 		SUBRANGE 0.0 1e38
$$ 		REL	"D1=D[1]"
$$ 		INV_REL	"D[1]=D1"
$$ 		UNIT	"sec"
$$ 		FORMAT	"%14.8f sec"
$$ 		TEXT	" "
$$ END
$$ NAME		TD0
$$ 		TEXT	" "
$$ END
$$ NAME		SFO1
$$ 		FORMAT	"%14.7f MHz"
$$ 		TEXT	" "
$$ END
$$ NAME		NUC1
$$ 		NONEDIT
$$ 		TEXT	" "
$$ END
$$ T_NAME		P0
$$ 		TYPE	R32
$$ 		CLASS	ACQU
$$ 		SUBRANGE 0.0 1.0e10
$$ 		REL	"P0=P[0]"
$$ 		INV_REL	"P[0]=P0"
$$ 		UNIT	"usec"
$$ 		FORMAT	"%14.2f usec"
$$ 		TEXT	" "
$$ END
$$ T_NAME		P1
$$ 		TYPE	R32
$$ 		CLASS	ACQU
$$ 		SUBRANGE 0.0 1.0e10
$$ 		REL	"P1=P[1]"
$$ 		INV_REL	"P[1]=P1"
$$ 		UNIT	"usec"
$$ 		FORMAT	"%14.2f usec"
$$ 		TEXT	" "
$$ END
$$ T_NAME		PLW1
$$ 		TYPE	R32
$$ 		CLASS	ACQU
$$ 		REL	"PLW1=PLW[1]"
$$ 		INV_REL	"PLW[1]=PLW1"
$$ 		UNIT	"W"
$$ 		FORMAT	"%14.8f W"
$$ 		TEXT	"power PLW1 "
$$ END
##$RELAX= 
##$BRUKER FILE EXP=fq1list
$$ O 400.072400
$$ -3000000
$$ -2984375
$$ -2968750
$$ -2953125
$$ -2937500
$$ -2921875
$$ -2906250
$$ -2890625
$$ -2875000
$$ -2859375
$$ -2843750
$$ -2828125
$$ -2812500
$$ -2796875
$$ -2781250
$$ -2765625
$$ -2750000
$$ -2734375
$$ -2718750
$$ -2703125
$$ -2687500
$$ -2671875
$$ -2656250
$$ -2640625
$$ -2625000
$$ -2609375
$$ -2593750
$$ -2578125
$$ -2562500
$$ -2546875
$$ -2531250
$$ -2515625
$$ -2500000
$$ -2484375
$$ -2468750
$$ -2453125
$$ -2437500
$$ -2421875
$$ -2406250
$$ -2390625
$$ -2375000
$$ -2359375
$$ -2343750
$$ -2328125
$$ -2312500
$$ -2296875
$$ -2281250
$$ -2265625
$$ -2250000
$$ -2234375
$$ -2218750
$$ -2203125
$$ -2187500
$$ -2171875
$$ -2156250
$$ -2140625
$$ -2125000
$$ -2109375
$$ -2093750
$$ -2078125
$$ -2062500
$$ -2046875
$$ -2031250
$$ -2015625
$$ -2000000
$$ -1984375
$$ -1968750
$$ -1953125
$$ -1937500
$$ -1921875
$$ -1906250
$$ -1890625
$$ -1875000
$$ -1859375
$$ -1843750
$$ -1828125
$$ -1812500
$$ -1796875
$$ -1781250
$$ -1765625
$$ -1750000
$$ -1734375
$$ -1718750
$$ -1703125
$$ -1687500
$$ -1671875
$$ -1656250
$$ -1640625
$$ -1625000
$$ -1609375
$$ -1593750
$$ -1578125
$$ -1562500
$$ -1546875
$$ -1531250
$$ -1515625
$$ -1500000
$$ -1484375
$$ -1468750
$$ -1453125
$$ -1437500
$$ -1421875
$$ -1406250
$$ -1390625
$$ -1375000
$$ -1359375
$$ -1343750
$$ -1328125
$$ -1312500
$$ -1296875
$$ -1281250
$$ -1265625
$$ -1250000
$$ -1234375
$$ -1218750
$$ -1203125
$$ -1187500
$$ -1171875
$$ -1156250
$$ -1140625
$$ -1125000
$$ -1109375
$$ -1093750
$$ -1078125
$$ -1062500
$$ -1046875
$$ -1031250
$$ -1015625
$$ -1000000
$$  -992157
$$  -984314
$$  -976471
$$  -968627
$$  -960784
$$  -952941
$$  -945098
$$  -937255
$$  -929412
$$  -921569
$$  -913725
$$  -905882
$$  -898039
$$  -890196
$$  -882353
$$  -874510
$$  -866667
$$  -858824
$$  -850980
$$  -843137
$$  -835294
$$  -827451
$$  -819608
$$  -811765
$$  -803922
$$  -796078
$$  -788235
$$  -780392
$$  -772549
$$  -764706
$$  -756863
$$  -749020
$$  -741176
$$  -733333
$$  -725490
$$  -717647
$$  -709804
$$  -701961
$$  -694118
$$  -686275
$$  -678431
$$  -670588
$$  -662745
$$  -654902
$$  -647059
$$  -639216
$$  -631373
$$  -623529
$$  -615686
$$  -607843
$$  -600000
$$  -592157
$$  -584314
$$  -576471
$$  -568627
$$  -560784
$$  -552941
$$  -545098
$$  -537255
$$  -529412
$$  -521569
$$  -513725
$$  -505882
$$  -498039
$$  -490196
$$  -482353
$$  -474510
$$  -466667
$$  -458824
$$  -450980
$$  -443137
$$  -435294
$$  -427451
$$  -419608
$$  -411765
$$  -403922
$$  -396078
$$  -388235
$$  -380392
$$  -372549
$$  -364706
$$  -356863
$$  -349020
$$  -341176
$$  -333333
$$  -325490
$$  -317647
$$  -309804
$$  -301961
$$  -294118
$$  -286275
$$  -278431
$$  -270588
$$  -262745
$$  -254902
$$  -247059
$$  -239216
$$  -231373
$$  -223529
$$  -215686
$$  -207843
$$  -200000
$$  -192157
$$  -184314
$$  -176471
$$  -168627
$$  -160784
$$  -152941
$$  -145098
$$  -137255
$$  -129412
$$  -121569
$$  -113725
$$  -105882
$$   -98039
$$   -90196
$$   -82353
$$   -74510
$$   -66667
$$   -58824
$$   -50980
$$   -43137
$$   -35294
$$   -27451
$$   -19608
$$   -11765
$$    -3922
$$     3922
$$    11765
$$    19608
$$    27451
$$    35294
$$    43137
$$    50980
$$    58824
$$    66667
$$    74510
$$    82353
$$    90196
$$    98039
$$   105882
$$   113725
$$   121569
$$   129412
$$   137255
$$   145098
$$   152941
$$   160784
$$   168627
$$   176471
$$   184314
$$   192157
$$   200000
$$   207843
$$   215686
$$   223529
$$   231373
$$   239216
$$   247059
$$   254902
$$   262745
$$   270588
$$   278431
$$   286275
$$   294118
$$   301961
$$   309804
$$   317647
$$   325490
$$   333333
$$   341176
$$   349020
$$   356863
$$   364706
$$   372549
$$   380392
$$   388235
$$   396078
$$   403922
$$   411765
$$   419608
$$   427451
$$   435294
$$   443137
$$   450980
$$   458824
$$   466667
$$   474510
$$   482353
$$   490196
$$   498039
$$   505882
$$   513725
$$   521569
$$   529412
$$   537255
$$   545098
$$   552941
$$   560784
$$   568627
$$   576471
$$   584314
$$   592157
$$   600000
$$   607843
$$   615686
$$   623529
$$   631373
$$   639216
$$   647059
$$   654902
$$   662745
$$   670588
$$   678431
$$   686275
$$   694118
$$   701961
$$   709804
$$   717647
$$   725490
$$   733333
$$   741176
$$   749020
$$   756863
$$   764706
$$   772549
$$   780392
$$   788235
$$   796078
$$   803922
$$   811765
$$   819608
$$   827451
$$   835294
$$   843137
$$   850980
$$   858824
$$   866667
$$   874510
$$   882353
$$   890196
$$   898039
$$   905882
$$   913725
$$   921569
$$   929412
$$   937255
$$   945098
$$   952941
$$   960784
$$   968627
$$   976471
$$   984314
$$   992157
$$  1000000
$$  1015625
$$  1031250
$$  1046875
$$  1062500
$$  1078125
$$  1093750
$$  1109375
$$  1125000
$$  1140625
$$  1156250
$$  1171875
$$  1187500
$$  1203125
$$  1218750
$$  1234375
$$  1250000
$$  1265625
$$  1281250
$$  1296875
$$  1312500
$$  1328125
$$  1343750
$$  1359375
$$  1375000
$$  1390625
$$  1406250
$$  1421875
$$  1437500
$$  1453125
$$  1468750
$$  1484375
$$  1500000
$$  1515625
$$  1531250
$$  1546875
$$  1562500
$$  1578125
$$  1593750
$$  1609375
$$  1625000
$$  1640625
$$  1656250
$$  1671875
$$  1687500
$$  1703125
$$  1718750
$$  1734375
$$  1750000
$$  1765625
$$  1781250
$$  1796875
$$  1812500
$$  1828125
$$  1843750
$$  1859375
$$  1875000
$$  1890625
$$  1906250
$$  1921875
$$  1937500
$$  1953125
$$  1968750
$$  1984375
$$  2000000
$$  2015625
$$  2031250
$$  2046875
$$  2062500
$$  2078125
$$  2093750
$$  2109375
$$  2125000
$$  2140625
$$  2156250
$$  2171875
$$  2187500
$$  2203125
$$  2218750
$$  2234375
$$  2250000
$$  2265625
$$  2281250
$$  2296875
$$  2312500
$$  2328125
$$  2343750
$$  2359375
$$  2375000
$$  2390625
$$  2406250
$$  2421875
$$  2437500
$$  2453125
$$  2468750
$$  2484375
$$  2500000
$$  2515625
$$  2531250
$$  2546875
$$  2562500
$$  2578125
$$  2593750
$$  2609375
$$  2625000
$$  2640625
$$  2656250
$$  2671875
$$  2687500
$$  2703125
$$  2718750
$$  2734375
$$  2750000
$$  2765625
$$  2781250
$$  2796875
$$  2812500
$$  2828125
$$  2843750
$$  2859375
$$  2875000
$$  2890625
$$  2906250
$$  2921875
$$  2937500
$$  2953125
$$  2968750
$$  2984375
$$  3000000
##$RELAX= 
##$BRUKER FILE EXP=scon2
$$ ##TITLE= Parameter file, TopSpin 3.6.2
$$ ##JCAMPDX= 5.0
$$ ##DATATYPE= Parameter Values
$$ ##NPOINTS= 1	$$ modification sequence number
$$ ##ORIGIN= Bruker BioSpin GmbH
$$ ##OWNER= nmrsu
$$ $$ 2024-11-30 04:57:39.156 +0000  nmrsu@cyan.ch.man.ac.uk
$$ $$ /mnt/nmrdata/Service/data/n82265as/nmr/20241128-1542-B400_B.11-13/10/scon2
$$ $$ process /opt/topspin3.6.2/prog/mod/go4
$$ ##$BLKTR= (0..19)
$$ 3 3 3 3 3 3 3 3 3 3 3 3 3 3 3 3 3 3 3 3
$$ ##$DE1= 4.5
$$ ##$DEADC= 0.5
$$ ##$DEPA= 4.5
$$ ##$DERX= 1.5
$$ ##$FILCOR= 1
$$ ##$GRADCHAN= 0
$$ ##$GRADPRE= (0..1)
$$ 10 10
$$ ##$HD_BLKTR= (0..19)
$$ 1 1 1 1 1 1 1 1 1 1 1 1 1 1 1 1 1 1 1 1
$$ ##$HD_DE1= 5
$$ ##$HD_DEADC= 0
$$ ##$HD_DEPA= 2.5
$$ ##$HD_DERX= 0
$$ ##END=
##$RELAX= 
##$BRUKER FILE EXP=acqum
$$ ##TITLE= Parameter file, TopSpin 3.6.2
$$ ##JCAMPDX= 5.0
$$ ##DATATYPE= Parameter Values
$$ ##NPOINTS= 1	$$ modification sequence number
$$ ##ORIGIN= Bruker BioSpin GmbH
$$ ##OWNER= nmrsu
$$ $$ 2024-11-30 04:54:38.859 +0000  nmrsu@cyan.ch.man.ac.uk
$$ $$ /mnt/nmrdata/Service/data/n82265as/nmr/20241128-1542-B400_B.11-13/10/acqum
$$ $$ process /opt/topspin3.6.2/prog/mod/xwish3
$$ ##$COMMENT= <>
$$ ##$ECF= 1
$$ ##$ECHOLST= (0..15)
$$ 1 1 1 1 1 1 1 1 1 1 1 1 1 1 1 1
$$ ##$ECOLLST= (0..15)
$$ 1 1 1 1 1 1 1 1 1 1 1 1 1 1 1 1
$$ ##$FLIPA= 0
$$ ##$FOV1= 0
$$ ##$FOV2= 0
$$ ##$FOV3= 0
$$ ##$FRARE= 1
$$ ##$HEADER= <>
$$ ##$INSTIT= <>
$$ ##$METHOD= <>
$$ ##$NECHOES= 1
$$ ##$NPROJEC= 32
$$ ##$NSLICES= 32
$$ ##$PATPOS= 0
$$ ##$RUNEXAM= -1
$$ ##$SDIST= 1
$$ ##$SOANGLE= 0
$$ ##$SORIENT= 0
$$ ##$SOT= <>
$$ ##$SPOS= 0
$$ ##$SPOSDIR= <>
$$ ##$STHICK= 3
$$ ##$T2DIST= 30
$$ ##$TINV= 50
$$ ##$TREC= 2700
$$ ##$TREP= 3000
$$ ##$TSCAN= 50000
$$ ##END=
##$RELAX= 
##$BRUKER FILE EXP=orig
$$ Ref molecule 4
$$ Group Service
##$RELAX= 
##$BRUKER FILE EXP=prosol_History
##$RELAX= 
##$BRUKER FILE EXP=pulseprogram
$$ # 1 "/opt/topspin3.6.2/exp/stan/nmr/lists/pp/zg30"
$$ ;zg30
$$ ;avance-version (18/04/13)
$$ ;1D sequence
$$ ;using 30 degree flip angle
$$ ;
$$ ;$CLASS=HighRes
$$ ;$DIM=1D
$$ ;$TYPE=
$$ ;$SUBTYPE=
$$ ;$COMMENT=
$$ ;$RECOMMEND=y
$$ 
$$ 
$$ # 1 "/opt/topspin3.6.2/exp/stan/nmr/lists/pp/Avance.incl" 1
$$ ;Avance3aqs.incl
$$ ;   for AV III with AQS IPSO
$$ ;
$$ ;avance-version (15/06/05)
$$ ;
$$ ;$CLASS=HighRes Incl
$$ ;$COMMENT=
$$ # 170 "/opt/topspin3.6.2/exp/stan/nmr/lists/pp/Avance.incl"
$$ ;$Id: Avance3aqs.incl,v 1.1.8.3 2015/03/05 16:46:54 ber Exp $
$$ # 14 "/opt/topspin3.6.2/exp/stan/nmr/lists/pp/zg30" 2
$$ 
$$ 
$$ # 17 "/opt/topspin3.6.2/exp/stan/nmr/lists/pp/zg30"
$$ "p0=p1/3"
$$ 
$$ 
$$ "acqt0=-tan((p0/p1)*(PI/4))*p1*2/PI"
$$ # 1 "mc_line 23 file /opt/topspin3.6.2/exp/stan/nmr/lists/pp/zg30 exp. def. part of mc cmd. before ze"
$$ ; dimension 1D; AQ_mode 
$$ define delay MCWRK
$$ define delay MCREST
$$ "MCREST = 30m - 30m"
$$ "MCWRK = 0.333333*30m"
$$ 
$$     dccorr
$$ # 23 "/opt/topspin3.6.2/exp/stan/nmr/lists/pp/zg30"
$$ # 23 "/opt/topspin3.6.2/exp/stan/nmr/lists/pp/zg30"
$$ 1 ze
$$ # 1 "mc_line 23 file /opt/topspin3.6.2/exp/stan/nmr/lists/pp/zg30 exp. def. of mc cmd. after ze"
$$ # 24 "/opt/topspin3.6.2/exp/stan/nmr/lists/pp/zg30"
$$ # 1 "mc_line 24 file /opt/topspin3.6.2/exp/stan/nmr/lists/pp/zg30 exp. start label for mc cmd."
$$ 2 MCWRK  * 2
$$ LBLF0, MCWRK
$$   MCREST
$$ # 25 "/opt/topspin3.6.2/exp/stan/nmr/lists/pp/zg30"
$$   d1
$$   p0 ph1
$$   go=2 ph31
$$ # 1 "mc_line 28 file /opt/topspin3.6.2/exp/stan/nmr/lists/pp/zg30 exp. mc cmd. in line"
$$   MCWRK wr #0
$$   MCWRK zd
$$   lo to LBLF0 times td0
$$ 
$$ # 29 "/opt/topspin3.6.2/exp/stan/nmr/lists/pp/zg30"
$$ exit
$$ 
$$ 
$$ ph1=0 2 2 0 1 3 3 1
$$ ph31=0 2 2 0 1 3 3 1
$$ # 36 "/opt/topspin3.6.2/exp/stan/nmr/lists/pp/zg30"
$$ ;pl1 : f1 channel - power level for pulse (default)
$$ ;p1 : f1 channel -  90 degree high power pulse
$$ ;d1 : relaxation delay; 1-5 * T1
$$ ;ns: 1 * n, total number of scans: NS * TD0
$$ 
$$ 
$$ # 43 "/opt/topspin3.6.2/exp/stan/nmr/lists/pp/zg30"
$$ ;$Id: zg30,v 1.12.2.2 2018/04/13 14:28:42 ber Exp $
##$RELAX= 
##$BRUKER FILE EXP=shimvalues
$$ # Sat Nov 30 04:59:11 2024
$$ #$$PROBEIDENTIFIER=Z108618_0671
$$ #$$PROBENAME=PA BBO 400S1 BBF-H-D-05 Z
$$ #$$SHIMID=313232
$$ #
$$ # Active Shim Gradients
$$ #
$$ Z           		-12802          
$$ Z2          		-5662           
$$ Z3          		-3496           
$$ Z4          		-16004          
$$ Z5          		332             
$$ Z6          		13162           
$$ X           		88              
$$ XZ          		-2673           
$$ XZ2         		-711            
$$ XZ3         		-2011           
$$ Y           		-3804           
$$ YZ          		-12477          
$$ YZ2         		-16247          
$$ YZ3         		1505            
$$ XY          		2369            
$$ XYZ         		-1209           
$$ (X2-Y2)     		-1762           
$$ (X2-Y2)Z    		7187            
$$ X3          		-12247          
$$ Y3          		4156            
$$ #
$$ # Lock Parameter
$$ #
$$ FIELD		-2718.693
$$ LOCKPHASE		302.586 
$$ LOCKPOWER		-13.000 
$$ LOCKGAIN		120.542 
$$ LOCKDC		-40.000 
$$ LOCKSHIFT		7.240   
$$ LOOPGAIN		-12.000 
$$ LOOPTIME		0.400   
$$ LOOPFILTER		100.000 
$$ #
$$ IEEE64_VERSION_CODE 1
$$ #
$$ # Shim currents 
$$ #
$$ SHIM_SETTING [1 ]  -6209.07515788  
$$ SHIM_SETTING [2 ]  -2802.80349995  
$$ SHIM_SETTING [3 ]  -1838.75608242  
$$ SHIM_SETTING [4 ]  -8417.87152384  
$$ SHIM_SETTING [5 ]  174.82983842    
$$ SHIM_SETTING [6 ]  46.19494553     
$$ SHIM_SETTING [7 ]  -1406.25259518  
$$ SHIM_SETTING [8 ]  -373.84883454   
$$ SHIM_SETTING [9 ]  -926.92168460   
$$ SHIM_SETTING [10]  1245.86816497   
$$ SHIM_SETTING [11]  -2000.68505744  
$$ SHIM_SETTING [12]  -6563.15251643  
$$ SHIM_SETTING [13]  -8546.06100614  
$$ SHIM_SETTING [14]  791.45359733    
$$ SHIM_SETTING [15]  6923.08500000   
$$ SHIM_SETTING [16]  3780.34532129   
$$ SHIM_SETTING [17]  -1057.96238873  
$$ SHIM_SETTING [18]  -635.82113354   
$$ SHIM_SETTING [19]  -6442.06368441  
$$ SHIM_SETTING [20]  2186.03611223   
##$RELAX= 
##$BRUKER FILE EXP=uxnmr.par
$$ ##TITLE= Parameter file, TopSpin 3.6.2
$$ ##JCAMPDX= 5.0
$$ ##DATATYPE= Parameter Values
$$ ##NPOINTS= 174	$$ modification sequence number
$$ ##ORIGIN= Bruker BioSpin GmbH
$$ ##OWNER= nmrsu
$$ $$ 2024-10-17 14:57:28.601 +0100  nmrsu@cyan.ch.man.ac.uk
$$ $$ /opt/topspin3.6.2/conf/instr/spect/uxnmr.par
$$ $$ process /opt/topspin3.6.2/prog/mod/cfserverav3
$$ ##$ACB= 0
$$ ##$ACBTAT= (0..23)
$$ 0 72 88 50 0 0 0 0 0 0 0 0 0 0 0 0 0 0 0 0 0 0 0 0
$$ ##$ACBTBA= (0..23)
$$ 0 0 0 0 0 0 0 0 0 0 0 0 0 0 0 0 0 0 0 0 0 0 0 0
$$ ##$ACBTBLK= (0..23)
$$ 0 34 33 39 0 0 0 0 0 0 0 0 0 0 0 0 0 0 0 0 0 0 0 0
$$ ##$ACBTCTL= (0..23)
$$ 0 6 6 6 0 0 0 0 0 0 0 0 0 0 0 0 0 0 0 0 0 0 0 0
$$ ##$ACBTDI= (0..23)
$$ 0 -1779670129 -1779670129 -1779670251 0 0 0 0 0 0 0 0 0 0 0 0 0 0 0 0 0
$$ 0 0 0
$$ ##$ACBTDM= (0..23)
$$ 0 25 10 10 0 0 0 0 0 0 0 0 0 0 0 0 0 0 0 0 0 0 0 0
$$ ##$ACBTFHI= (0..23)
$$ 0 600 365 62 0 0 0 0 0 0 0 0 0 0 0 0 0 0 0 0 0 0 0 0
$$ ##$ACBTFL= (0..23)
$$ 0 248 248 8 0 0 0 0 0 0 0 0 0 0 0 0 0 0 0 0 0 0 0 0
$$ ##$ACBTFLO= (0..23)
$$ 0 180 6 60 0 0 0 0 0 0 0 0 0 0 0 0 0 0 0 0 0 0 0 0
$$ ##$ACBTINP= (0..23)
$$ 0 2 1 7 0 0 0 0 0 0 0 0 0 0 0 0 0 0 0 0 0 0 0 0
$$ ##$ACBTOUT= (0..23)
$$ 0 1 2 1 0 0 0 0 0 0 0 0 0 0 0 0 0 0 0 0 0 0 0 0
$$ ##$ACBTPO= (0..23)
$$ 0 100000 300000 5000 0 0 0 0 0 0 0 0 0 0 0 0 0 0 0 0 0 0 0 0
$$ ##$ACBTPW= (0..23)
$$ 0 100 100 1000 0 0 0 0 0 0 0 0 0 0 0 0 0 0 0 0 0 0 0 0
$$ ##$ACBTSB= (0..23)
$$ 0 103 99 0 0 0 0 0 0 0 0 0 0 0 0 0 0 0 0 0 0 0 0 0
$$ ##$ACBTSDT= (0..23)
$$ 0 2 2 2 0 0 0 0 0 0 0 0 0 0 0 0 0 0 0 0 0 0 0 0
$$ ##$ACBTY= <no>
$$ ##$AMPDFLT= no
$$ ##$AQSBDCH= (0..95)
$$ 0 0 0 0 0 0 0 0 255 255 255 255 255 255 255 255 255 255 255 255 255 255
$$ 255 255 255 255 255 255 255 255 255 255 255 255 255 255 255 255 255 255
$$ 255 255 255 255 255 255 255 255 255 255 255 255 255 255 255 255 255 255
$$ 255 255 255 255 255 255 255 255 255 255 255 255 255 255 255 255 255 255
$$ 255 255 255 255 255 255 255 255 255 255 255 255 255 255 255 255 255 255
$$ 255 255
$$ ##$AQSBDHW= (0..95)
$$ 5 1 0 0 0 0 0 0 255 255 255 255 255 255 255 255 255 255 255 255 255 255
$$ 255 255 255 255 255 255 255 255 255 255 255 255 255 255 255 255 255 255
$$ 255 255 255 255 255 255 255 255 255 255 255 255 255 255 255 255 255 255
$$ 255 255 255 255 255 255 255 255 255 255 255 255 255 255 255 255 255 255
$$ 255 255 255 255 255 255 255 255 255 255 255 255 255 255 255 255 255 255
$$ 255 255
$$ ##$AQSBDID= (0..95)
$$ 82 88 83 83 86 86 66 66 255 255 255 255 255 255 255 255 255 255 255 255
$$ 255 255 255 255 255 255 255 255 255 255 255 255 255 255 255 255 255 255
$$ 255 255 255 255 255 255 255 255 255 255 255 255 255 255 255 255 255 255
$$ 255 255 255 255 255 255 255 255 255 255 255 255 255 255 255 255 255 255
$$ 255 255 255 255 255 255 255 255 255 255 255 255 255 255 255 255 255 255
$$ 255 255 255 255
$$ ##$AQSBDNO= (0..95)
$$ 1 1 1 2 1 2 1 1 255 255 255 255 255 255 255 255 255 255 255 255 255 255
$$ 255 255 255 255 255 255 255 255 255 255 255 255 255 255 255 255 255 255
$$ 255 255 255 255 255 255 255 255 255 255 255 255 255 255 255 255 255 255
$$ 255 255 255 255 255 255 255 255 255 255 255 255 255 255 255 255 255 255
$$ 255 255 255 255 255 255 255 255 255 255 255 255 255 255 255 255 255 255
$$ 255 255
$$ ##$AQSBDSL= (0..95)
$$ 2 3 4 4 13 14 255 1 255 255 255 255 255 255 255 255 255 255 255 255 255
$$ 255 255 255 255 255 255 255 255 255 255 255 255 255 255 255 255 255 255
$$ 255 255 255 255 255 255 255 255 255 255 255 255 255 255 255 255 255 255
$$ 255 255 255 255 255 255 255 255 255 255 255 255 255 255 255 255 255 255
$$ 255 255 255 255 255 255 255 255 255 255 255 255 255 255 255 255 255 255
$$ 255 255 255
$$ ##$AQSBDTY= (0..95)
$$ 67 214 50 50 147 145 216 7 255 255 255 255 255 255 255 255 255 255 255
$$ 255 255 255 255 255 255 255 255 255 255 255 255 255 255 255 255 255 255
$$ 255 255 255 255 255 255 255 255 255 255 255 255 255 255 255 255 255 255
$$ 255 255 255 255 255 255 255 255 255 255 255 255 255 255 255 255 255 255
$$ 255 255 255 255 255 255 255 255 255 255 255 255 255 255 255 255 255 255
$$ 255 255 255 255 255
$$ ##$AQSBUAD= (0..95)
$$ 16 52 36 37 160 161 32 32 255 255 255 255 255 255 255 255 255 255 255 255
$$ 255 255 255 255 255 255 255 255 255 255 255 255 255 255 255 255 255 255
$$ 255 255 255 255 255 255 255 255 255 255 255 255 255 255 255 255 255 255
$$ 255 255 255 255 255 255 255 255 255 255 255 255 255 255 255 255 255 255
$$ 255 255 255 255 255 255 255 255 255 255 255 255 255 255 255 255 255 255
$$ 255 255 255 255
$$ ##$AQSECL= (0..95)
$$ 0 3 2 2 0 1 2 255 255 255 255 255 255 255 255 255 255 255 255 255 255 255
$$ 255 255 255 255 255 255 255 255 255 255 255 255 255 255 255 255 255 255
$$ 255 255 255 255 255 255 255 255 255 255 255 255 255 255 255 255 255 255
$$ 255 255 255 255 255 255 255 255 255 255 255 255 255 255 255 255 255 255
$$ 255 255 255 255 255 255 255 255 255 255 255 255 255 255 255 255 255 255
$$ 255 255
$$ ##$AQSECLS= (0..95)
$$ 2 0 2 2 1 2 0 255 255 255 255 255 255 255 255 255 255 255 255 255 255 255
$$ 255 255 255 255 255 255 255 255 255 255 255 255 255 255 255 255 255 255
$$ 255 255 255 255 255 255 255 255 255 255 255 255 255 255 255 255 255 255
$$ 255 255 255 255 255 255 255 255 255 255 255 255 255 255 255 255 255 255
$$ 255 255 255 255 255 255 255 255 255 255 255 255 255 255 255 255 255 255
$$ 255 255
$$ ##$AQSETH1= <no>
$$ ##$AQSETH2= <no>
$$ ##$AQSSPLT= no
$$ ##$ATT19F= (0..1)
$$ 0 0
$$ ##$ATT1H= (0..1)
$$ 0 0
$$ ##$ATT3H= (0..1)
$$ 0 0
$$ ##$ATTX= (0..1)
$$ 0 0
$$ ##$ATTY= (0..1)
$$ 0 0
$$ ##$ATTZ= (0..1)
$$ 0 0
$$ ##$BACSAIR= yes
$$ ##$BACSCAP= 60
$$ ##$BACSDEL= 10
$$ ##$BACSFCM= no
$$ ##$BACSOPT= <>
$$ ##$BACSTY= <tty04>
$$ ##$BARPTY= <no>
$$ ##$BFREQ= 400.07
$$ ##$BGAETH= (0..9)
$$ <no> <no> <no> <no> <no> <no> <no> <no> <no> <no>
$$ ##$BIRDS= yes
$$ ##$BMPC= 0
$$ ##$BMPCTY= <no>
$$ ##$BPSUTY= <no>
$$ ##$BSMS= 2
$$ ##$BSMS19FLock= no
$$ ##$BSMSETH= <149.236.99.21>
$$ ##$BSMSTY= <no>
$$ ##$BgaChFac2= (0..7)
$$ 0 0 0 0 0 0 0 0
$$ ##$BgaChMap= (0..7)
$$ 0 0 0 0 0 0 0 0
$$ ##$BgaChMaxv= (0..7)
$$ 0 0 0 0 0 0 0 0
$$ ##$BgaChRouting= (0..63)
$$ 0 0 0 0 0 0 0 0 0 0 0 0 0 0 0 0 0 0 0 0 0 0 0 0 0 0 0 0 0 0 0 0 0 0 0 0
$$ 0 0 0 0 0 0 0 0 0 0 0 0 0 0 0 0 0 0 0 0 0 0 0 0 0 0 0 0
$$ ##$BgaChShimMap= (0..7)
$$ 0 0 0 0 0 0 0 0
$$ ##$BgaChShimMaxv= (0..7)
$$ 0 0 0 0 0 0 0 0
$$ ##$Bla01Eth= <149.236.99.253>
$$ ##$Bla01Nam= <BLAXH300/100 E 200-600MHZ INR>
$$ ##$Bla01PN= <W1345083>
$$ ##$Bla01SN= <0667>
$$ ##$Bla02Eth= <149.236.99.20>
$$ ##$Bla02Nam= <BSMS/2 LOCK TRANSCEIVER 400>
$$ ##$Bla02PN= <Z109888>
$$ ##$Bla02SN= <01052>
$$ ##$Bla03Eth= <no>
$$ ##$Bla03Nam= <>
$$ ##$Bla03PN= <>
$$ ##$Bla03SN= <>
$$ ##$Bla04Eth= <no>
$$ ##$Bla04Nam= <>
$$ ##$Bla04PN= <>
$$ ##$Bla04SN= <>
$$ ##$Bla05Eth= <no>
$$ ##$Bla05Nam= <>
$$ ##$Bla05PN= <>
$$ ##$Bla05SN= <>
$$ ##$Bla06Eth= <no>
$$ ##$Bla06Nam= <>
$$ ##$Bla06PN= <>
$$ ##$Bla06SN= <>
$$ ##$Bla07Eth= <no>
$$ ##$Bla07Nam= <>
$$ ##$Bla07PN= <>
$$ ##$Bla07SN= <>
$$ ##$Bla08Eth= <no>
$$ ##$Bla08Nam= <>
$$ ##$Bla08PN= <>
$$ ##$Bla08SN= <>
$$ ##$BlaEth= (0..9)
$$ <149.236.99.143> <149.236.99.21> <no> <no> <no> <no> <no> <no> <> <>
$$ ##$BlaNam= (0..9)
$$ <BLAXH300/100 E 200-600MHZ INR> <BSMS/2 LOCK TRANSCEIVER 400> <> <> <>
$$ <> <> <> <> <>
$$ ##$BlaPN= (0..9)
$$ <W1345083> <Z109888> <> <> <> <> <> <> <> <>
$$ ##$BlaSN= (0..9)
$$ <0667> <01052> <> <> <> <> <> <> <> <>
$$ ##$BsmsAuxEth= <no>
$$ ##$CFASMOD= (0..7)
$$ 1 1 1 1 1 1 1 1
$$ ##$CFASMUL= (0..7)
$$ 1 1 1 1 1 1 1 1
$$ ##$CNFTXDR= (0..7)
$$ 6 6 0 0 0 0 0 0
$$ ##$COMDIG2= 0
$$ ##$CPDBTY= <no>
$$ ##$CRCOTY= <no>
$$ ##$CSW1= (0..31)
$$ 2 2 0 7 0 0 0 0 0 0 0 0 0 0 0 0 0 0 0 0 0 0 0 0 0 0 0 0 0 0 0 0
$$ ##$CSW2= (0..31)
$$ 1 1 0 0 0 0 0 0 0 0 0 0 0 0 0 0 0 0 0 0 0 0 0 0 0 0 0 0 0 0 0 0
$$ ##$CSWNUM= (0..7)
$$ 3 1 0 0 0 0 0 0
$$ ##$ConsolePnSn= <>
$$ ##$CryoCoolUnitEth= <no>
$$ ##$CryoProAccPnSn= <>
$$ ##$Ctb1Eth= <no>
$$ ##$CubeEth= (0..7)
$$ <no> <no> <no> <no> <no> <no> <no> <no>
$$ ##$CustRegisterNo= <>
$$ ##$DATSTAT= no
$$ ##$DIGI140= (0..7)
$$ 0 0 0 0 0 0 0 0
$$ ##$DIGIB12= (0..7)
$$ 0 0 0 0 0 0 0 0
$$ ##$DIGIB16= (0..7)
$$ 0 0 0 0 0 0 0 0
$$ ##$DIGIFA= (0..7)
$$ 0 0 0 0 0 0 0 0
$$ ##$DIGIFOURIER= 0
$$ ##$DIGIHA= (0..7)
$$ 0 0 0 0 0 0 0 0
$$ ##$DIGIHAF= (0..7)
$$ 0 0 0 0 0 0 0 0
$$ ##$DIGIHRD= (0..7)
$$ 0 0 0 0 0 0 0 0
$$ ##$DIGIIA= (0..7)
$$ 0 0 0 0 0 0 0 0
$$ ##$DIGIO16= (0..7)
$$ 0 0 0 0 0 0 0 0
$$ ##$DIGISA= (0..7)
$$ 0 0 0 0 0 0 0 0
$$ ##$DIGISAF= (0..7)
$$ 0 0 0 0 0 0 0 0
$$ ##$DIGISL= (0..7)
$$ 0 0 0 0 0 0 0 0
$$ ##$DIGITYI= (0..7)
$$ 0 0 0 0 0 0 0 0
$$ ##$DIGITYP= (0..7)
$$ 0 0 0 0 0 0 0 0
$$ ##$DIGITZ= 0
$$ ##$DPPFAC= 1
$$ ##$DRMSETH= <no>
$$ ##$DRU= yes
$$ ##$DRUETH= (0..33)
$$ <no> <149.236.99.89> <no> <no> <no> <no> <no> <no> <no> <no> <no> <no>
$$ <no> <no> <no> <no> <no> <no> <no> <no> <no> <no> <no> <no> <no> <no> <no>
$$ <no> <no> <no> <no> <no> <no> <>
$$ ##$Description= <B400B11>
$$ ##$DppType= 0
$$ ##$FCUMEM= (0..7)
$$ 16777208 16777208 0 0 0 0 0 0
$$ ##$FCUPAL= (0..7)
$$ 0 0 0 0 0 0 0 0
$$ ##$FGSVTY= <no>
$$ ##$FQMIX= 0
$$ ##$FUNCMOD= <>
$$ ##$FourPeriBdEth= <no>
$$ ##$FourShimBdEth= <no>
$$ ##$FourierPicsCon= no
$$ ##$GCUTYPE= 10
$$ ##$GCUTYPE2= 0
$$ ##$GPREDEL= 0
$$ ##$GPSCUTY= <no>
$$ ##$GRADRES= 5
$$ ##$GTUTY= <no>
$$ ##$GcConn= (0..1)
$$ 1 0
$$ ##$GradAmpGain= (0..7)
$$ 0 0 0 0 0 0 0 0
$$ ##$GradAmpMaxCurX= (0..7)
$$ 0 0 0 0 0 0 0 0
$$ ##$GradAmpMaxCurY= (0..7)
$$ 0 0 0 0 0 0 0 0
$$ ##$GradAmpMaxCurZ= (0..7)
$$ 9.99999904632568 0 0 0 0 0 0 0
$$ ##$GradAmpName= (0..7)
$$ <GAB in BSMS> <> <> <> <> <> <> <>
$$ ##$GradAmpPN= (0..7)
$$ <> <> <> <> <> <> <> <>
$$ ##$GradAmpSN= (0..7)
$$ <> <> <> <> <> <> <> <>
$$ ##$GradAmpType= (0..7)
$$ 2 0 0 0 0 0 0 0
$$ ##$GradPowClkCtrl= 0
$$ ##$GradPowClkTime= 0
$$ ##$GradPowImax= 0
$$ ##$GradPowType= 0
$$ ##$GradPowVmax= 0
$$ ##$HDIETH= (0..5)
$$ <> <no> <no> <no> <no> <>
$$ ##$HFAC= 3
$$ ##$HPCU= 0
$$ ##$HPCUTY= <no>
$$ ##$HPTXLP= (0..3)
$$ -1 -1 -1 -1
$$ ##$HPTXPI= (0..3)
$$ 0 0 0 0
$$ ##$HPTXPO= (0..3)
$$ 0 0 0 0
$$ ##$HPTXTY= (0..3)
$$ 0 0 0 0
$$ ##$HpprCoverType= 2
$$ ##$IF451= 0
$$ ##$IFREQ= 1
$$ ##$INJPTY= <no>
$$ ##$INTFPR= 0
$$ ##$IPSOETH= <149.236.99.141>
$$ ##$IPSOTYPE= 2
$$ ##$LDUETH= <no>
$$ ##$LOCKCONF= <DLMT>
$$ ##$LOCKTY= <no>
$$ ##$LOCSWID= 0
$$ ##$LOCSWIF= 0
$$ ##$LVDSSPLITETH= (0..5)
$$ <> <no> <no> <no> <no> <>
$$ ##$Location= <UK>
$$ ##$M2FAC= 0
$$ ##$MAS= 0
$$ ##$MASETIME= 10
$$ ##$MASITIME= 10
$$ ##$MASTY= <no>
$$ ##$MAS_CT= 5
$$ ##$MAS_SG= 0
$$ ##$MAS_TO= 0
$$ ##$MEMPRM= 0
$$ ##$MHFAC= 0
$$ ##$MXFAC= 0
$$ ##$MagnCoilPnSn= <>
$$ ##$MagnDewarPnSn= <>
$$ ##$MasEth= <no>
$$ ##$NAMPD= (0..17)
$$ <> <HPLNA 19F1H> <2H> <XBB19F 2HS> <> <> <> <> <> <> <> <> <> <> <> <>
$$ <> <>
$$ ##$NFCU= 2
$$ ##$NFRED= 0
$$ ##$NMRCH= 2
$$ ##$NMRMEM= 16384
$$ ##$NPSGU= 0
$$ ##$NRCU= 1
$$ ##$NROUT= 0
$$ ##$NSGU= 2
$$ ##$OrderNo= <10105932>
$$ ##$PAMPF1= (0..15)
$$ 75 56 96 64 0 0 0 0 0 0 0 0 0 0 0 0
$$ ##$PAMPF2= (0..15)
$$ 0 0 0 0 0 0 0 0 0 0 0 0 0 0 0 0
$$ ##$PAMPF3= (0..15)
$$ 0 0 0 0 0 0 0 0 0 0 0 0 0 0 0 0
$$ ##$PAMPF4= (0..15)
$$ 0 0 0 0 0 0 0 0 0 0 0 0 0 0 0 0
$$ ##$PAMPF5= (0..15)
$$ 0 0 0 0 0 0 0 0 0 0 0 0 0 0 0 0
$$ ##$PAMPF6= (0..15)
$$ 0 0 0 0 0 0 0 0 0 0 0 0 0 0 0 0
$$ ##$PAMPF7= (0..15)
$$ 0 0 0 0 0 0 0 0 0 0 0 0 0 0 0 0
$$ ##$PAMPF8= (0..15)
$$ 0 0 0 0 0 0 0 0 0 0 0 0 0 0 0 0
$$ ##$PH4= 0
$$ ##$PHF4TY= <no>
$$ ##$POWCHK= yes
$$ ##$PRAMD1= (0..7)
$$ 6 0 0 1610612736 0 0 0 0
$$ ##$PRAMD10= (0..7)
$$ 0 0 0 0 0 0 0 0
$$ ##$PRAMD11= (0..7)
$$ 0 0 0 0 0 0 0 0
$$ ##$PRAMD12= (0..7)
$$ 0 0 0 0 0 0 0 0
$$ ##$PRAMD13= (0..7)
$$ 0 0 0 0 0 0 0 0
$$ ##$PRAMD14= (0..7)
$$ 0 0 0 0 0 0 0 0
$$ ##$PRAMD15= (0..7)
$$ 0 0 0 0 0 0 0 0
$$ ##$PRAMD16= (0..7)
$$ 0 0 0 0 0 0 0 0
$$ ##$PRAMD17= (0..7)
$$ 0 0 0 0 0 0 0 0
$$ ##$PRAMD18= (0..7)
$$ 0 0 0 0 0 0 0 0
$$ ##$PRAMD19= (0..7)
$$ 0 0 0 0 0 0 0 0
$$ ##$PRAMD2= (0..7)
$$ 0 1048576 0 536870912 0 1048576 0 536870912
$$ ##$PRAMD20= (0..7)
$$ 0 0 0 0 0 0 0 0
$$ ##$PRAMD21= (0..7)
$$ 0 0 0 0 0 0 0 0
$$ ##$PRAMD3= (0..7)
$$ 2147483644 2131230719 2147483647 603979775 0 0 0 0
$$ ##$PRAMD4= (0..7)
$$ 0 0 0 0 0 0 0 0
$$ ##$PRAMD5= (0..7)
$$ 0 0 0 0 0 0 0 0
$$ ##$PRAMD6= (0..7)
$$ 0 0 0 0 0 0 0 0
$$ ##$PRAMD7= (0..7)
$$ 0 0 0 0 0 0 0 0
$$ ##$PRAMD8= (0..7)
$$ 0 0 0 0 0 0 0 0
$$ ##$PRAMD9= (0..7)
$$ 0 0 0 0 0 0 0 0
$$ ##$PRAMLED= (0..1)
$$ 0 0
$$ ##$PRAMP= (0..9)
$$ <> <tty10> <no> <no> <no> <no> <no> <no> <no> <>
$$ ##$PRAMPTP= 1
$$ ##$PREEMPTYPE= 0
$$ ##$PREPTY= <no>
$$ ##$PREREC= (0..15)
$$ 0 1 1 1 0 0 0 0 0 0 0 0 0 0 0 0
$$ ##$PRESHLD= 0
$$ ##$PTS160= -1
$$ ##$PTSA2X= (0..7)
$$ 0 0 0 0 0 0 0 0
$$ ##$PTSF2X= (0..7)
$$ 0 0 0 0 0 0 0 0
$$ ##$PTSFMX= (0..19)
$$ 649.9 649.9 0 0 0 0 0 0 0 0 0 0 0 0 0 0 0 0 0 0
$$ ##$PULCHK= no
$$ ##$PerMagATempSens= no
$$ ##$PerMagEth= <no>
$$ ##$PerMagFluxSens= no
$$ ##$PerMagMTempSens= no
$$ ##$PramDutyCycPerc= (0..15)
$$ 4 2 2 0 0 0 0 0 0 0 0 0 0 0 0 0
$$ ##$PramPeakPowerW= (0..15)
$$ 4000 500 500 0 0 0 0 0 0 0 0 0 0 0 0 0
$$ ##$PramPowerSwitch= (0..15)
$$ 0 0 0 0 0 0 0 0 0 0 0 0 0 0 0 0
$$ ##$PramPulWidthMs= (0..15)
$$ 10 0.1 0.1 0 0 0 0 0 0 0 0 0 0 0 0 0
$$ ##$PreampMod01PN= <Z103203>
$$ ##$PreampMod01SN= <00239>
$$ ##$PreampMod02PN= <Z003471>
$$ ##$PreampMod02SN= <00023>
$$ ##$PreampMod03PN= <Z003504>
$$ ##$PreampMod03SN= <01041>
$$ ##$PreampMod04PN= <>
$$ ##$PreampMod04SN= <>
$$ ##$PreampMod05PN= <>
$$ ##$PreampMod05SN= <>
$$ ##$PreampMod06PN= <>
$$ ##$PreampMod06SN= <>
$$ ##$PreampMod07PN= <>
$$ ##$PreampMod07SN= <>
$$ ##$PreampMod08PN= <>
$$ ##$PreampMod08SN= <>
$$ ##$PreampMod09PN= <>
$$ ##$PreampMod09SN= <>
$$ ##$PreampMod10PN= <>
$$ ##$PreampMod10SN= <>
$$ ##$PreampMod11PN= <>
$$ ##$PreampMod11SN= <>
$$ ##$PreampMod12PN= <>
$$ ##$PreampMod12SN= <>
$$ ##$PreampMod13PN= <>
$$ ##$PreampMod13SN= <>
$$ ##$PreampMod14PN= <>
$$ ##$PreampMod14SN= <>
$$ ##$PreampMod15PN= <>
$$ ##$PreampMod15SN= <>
$$ ##$PreampMod16PN= <>
$$ ##$PreampMod16SN= <>
$$ ##$PreampModBisDat= (0..15)
$$ 20130701 20130530 20130703 0 0 0 0 0 0 0 0 0 0 0 0 0
$$ ##$PreampModPN= (0..17)
$$ <Z103203> <Z003471> <Z003504> <> <> <> <> <> <> <> <> <> <> <> <> <> <>
$$ <>
$$ ##$PreampModSN= (0..17)
$$ <00239> <00023> <01041> <> <> <> <> <> <> <> <> <> <> <> <> <> <> <>
$$ ##$ProdigyEth= <149.236.99.144>
$$ ##$RCUCDS= (0..7)
$$ 0 0 0 0 0 0 0 0
$$ ##$RCUCFS= (0..7)
$$ 0 0 0 0 0 0 0 0
$$ ##$RCUCSS= (0..7)
$$ 0 0 0 0 0 0 0 0
$$ ##$RCUI2C1= (0..7)
$$ 0 0 0 0 0 0 0 0
$$ ##$RCUI2C2= (0..7)
$$ 0 0 0 0 0 0 0 0
$$ ##$RCUI2C3= (0..7)
$$ 0 0 0 0 0 0 0 0
$$ ##$RCUI2C4= (0..7)
$$ 0 0 0 0 0 0 0 0
$$ ##$RCUI2C5= (0..7)
$$ 0 0 0 0 0 0 0 0
$$ ##$RCUI2C6= (0..7)
$$ 0 0 0 0 0 0 0 0
$$ ##$RCUI2C7= (0..7)
$$ 0 0 0 0 0 0 0 0
$$ ##$RCUI2C8= (0..7)
$$ 0 0 0 0 0 0 0 0
$$ ##$RDCU= 0
$$ ##$RFSINPUT= (0..1)
$$ 0 0
$$ ##$RFSVTY= <no>
$$ ##$RGTYPE= (0..31)
$$ 9 0 0 0 0 0 0 0 0 0 0 0 0 0 0 0 0 0 0 0 0 0 0 0 0 0 0 0 0 0 0 0
$$ ##$RG_max= (0..31)
$$ 203 -1 -1 -1 -1 -1 -1 -1 -1 -1 -1 -1 -1 -1 -1 -1 -1 -1 -1 -1 -1 -1 -1 -1
$$ -1 -1 -1 -1 -1 -1 -1 -1
$$ ##$RG_min= (0..31)
$$ 0.25 -1 -1 -1 -1 -1 -1 -1 -1 -1 -1 -1 -1 -1 -1 -1 -1 -1 -1 -1 -1 -1 -1
$$ -1 -1 -1 -1 -1 -1 -1 -1 -1
$$ ##$RG_tab1= (0..255)
$$ 0.25 0.28 0.32 0.35 0.4 0.44 0.5 0.56 0.64 0.7 0.8 0.89 1 1.12 1.28 1.4
$$ 1.6 1.78 2 2.25 2.56 2.8 3.2 3.56 4 4.5 5 5.6 6.35 7.12 8 9 10 11.3 12.7
$$ 14.2 16 18 20.2 22.6 25.4 28.5 32 36 40.3 45.2 50.8 57 64 71.8 80.6 90.5
$$ 101 114 128 144 161 181 203 -1 -1 -1 -1 -1 -1 -1 -1 -1 -1 -1 -1 -1 -1 -1
$$ -1 -1 -1 -1 -1 -1 -1 -1 -1 -1 -1 -1 -1 -1 -1 -1 -1 -1 -1 -1 -1 -1 -1 -1
$$ -1 -1 -1 -1 -1 -1 -1 -1 -1 -1 -1 -1 -1 -1 -1 -1 -1 -1 -1 -1 -1 -1 -1 -1
$$ -1 -1 -1 -1 -1 -1 -1 -1 -1 -1 -1 -1 -1 -1 -1 -1 -1 -1 -1 -1 -1 -1 -1 -1
$$ -1 -1 -1 -1 -1 -1 -1 -1 -1 -1 -1 -1 -1 -1 -1 -1 -1 -1 -1 -1 -1 -1 -1 -1
$$ -1 -1 -1 -1 -1 -1 -1 -1 -1 -1 -1 -1 -1 -1 -1 -1 -1 -1 -1 -1 -1 -1 -1 -1
$$ -1 -1 -1 -1 -1 -1 -1 -1 -1 -1 -1 -1 -1 -1 -1 -1 -1 -1 -1 -1 -1 -1 -1 -1
$$ -1 -1 -1 -1 -1 -1 -1 -1 -1 -1 -1 -1 -1 -1 -1 -1 -1 -1 -1 -1 -1 -1 -1 -1
$$ -1 -1 -1 -1 -1 -1 -1 -1 -1 -1 -1 -1 -1 -1
$$ ##$RG_tab2= (0..255)
$$ -1 -1 -1 -1 -1 -1 -1 -1 -1 -1 -1 -1 -1 -1 -1 -1 -1 -1 -1 -1 -1 -1 -1 -1
$$ -1 -1 -1 -1 -1 -1 -1 -1 -1 -1 -1 -1 -1 -1 -1 -1 -1 -1 -1 -1 -1 -1 -1 -1
$$ -1 -1 -1 -1 -1 -1 -1 -1 -1 -1 -1 -1 -1 -1 -1 -1 -1 -1 -1 -1 -1 -1 -1 -1
$$ -1 -1 -1 -1 -1 -1 -1 -1 -1 -1 -1 -1 -1 -1 -1 -1 -1 -1 -1 -1 -1 -1 -1 -1
$$ -1 -1 -1 -1 -1 -1 -1 -1 -1 -1 -1 -1 -1 -1 -1 -1 -1 -1 -1 -1 -1 -1 -1 -1
$$ -1 -1 -1 -1 -1 -1 -1 -1 -1 -1 -1 -1 -1 -1 -1 -1 -1 -1 -1 -1 -1 -1 -1 -1
$$ -1 -1 -1 -1 -1 -1 -1 -1 -1 -1 -1 -1 -1 -1 -1 -1 -1 -1 -1 -1 -1 -1 -1 -1
$$ -1 -1 -1 -1 -1 -1 -1 -1 -1 -1 -1 -1 -1 -1 -1 -1 -1 -1 -1 -1 -1 -1 -1 -1
$$ -1 -1 -1 -1 -1 -1 -1 -1 -1 -1 -1 -1 -1 -1 -1 -1 -1 -1 -1 -1 -1 -1 -1 -1
$$ -1 -1 -1 -1 -1 -1 -1 -1 -1 -1 -1 -1 -1 -1 -1 -1 -1 -1 -1 -1 -1 -1 -1 -1
$$ -1 -1 -1 -1 -1 -1 -1 -1 -1 -1 -1 -1 -1 -1 -1 -1
$$ ##$RG_tab3= (0..255)
$$ -1 -1 -1 -1 -1 -1 -1 -1 -1 -1 -1 -1 -1 -1 -1 -1 -1 -1 -1 -1 -1 -1 -1 -1
$$ -1 -1 -1 -1 -1 -1 -1 -1 -1 -1 -1 -1 -1 -1 -1 -1 -1 -1 -1 -1 -1 -1 -1 -1
$$ -1 -1 -1 -1 -1 -1 -1 -1 -1 -1 -1 -1 -1 -1 -1 -1 -1 -1 -1 -1 -1 -1 -1 -1
$$ -1 -1 -1 -1 -1 -1 -1 -1 -1 -1 -1 -1 -1 -1 -1 -1 -1 -1 -1 -1 -1 -1 -1 -1
$$ -1 -1 -1 -1 -1 -1 -1 -1 -1 -1 -1 -1 -1 -1 -1 -1 -1 -1 -1 -1 -1 -1 -1 -1
$$ -1 -1 -1 -1 -1 -1 -1 -1 -1 -1 -1 -1 -1 -1 -1 -1 -1 -1 -1 -1 -1 -1 -1 -1
$$ -1 -1 -1 -1 -1 -1 -1 -1 -1 -1 -1 -1 -1 -1 -1 -1 -1 -1 -1 -1 -1 -1 -1 -1
$$ -1 -1 -1 -1 -1 -1 -1 -1 -1 -1 -1 -1 -1 -1 -1 -1 -1 -1 -1 -1 -1 -1 -1 -1
$$ -1 -1 -1 -1 -1 -1 -1 -1 -1 -1 -1 -1 -1 -1 -1 -1 -1 -1 -1 -1 -1 -1 -1 -1
$$ -1 -1 -1 -1 -1 -1 -1 -1 -1 -1 -1 -1 -1 -1 -1 -1 -1 -1 -1 -1 -1 -1 -1 -1
$$ -1 -1 -1 -1 -1 -1 -1 -1 -1 -1 -1 -1 -1 -1 -1 -1
$$ ##$RG_tab4= (0..255)
$$ -1 -1 -1 -1 -1 -1 -1 -1 -1 -1 -1 -1 -1 -1 -1 -1 -1 -1 -1 -1 -1 -1 -1 -1
$$ -1 -1 -1 -1 -1 -1 -1 -1 -1 -1 -1 -1 -1 -1 -1 -1 -1 -1 -1 -1 -1 -1 -1 -1
$$ -1 -1 -1 -1 -1 -1 -1 -1 -1 -1 -1 -1 -1 -1 -1 -1 -1 -1 -1 -1 -1 -1 -1 -1
$$ -1 -1 -1 -1 -1 -1 -1 -1 -1 -1 -1 -1 -1 -1 -1 -1 -1 -1 -1 -1 -1 -1 -1 -1
$$ -1 -1 -1 -1 -1 -1 -1 -1 -1 -1 -1 -1 -1 -1 -1 -1 -1 -1 -1 -1 -1 -1 -1 -1
$$ -1 -1 -1 -1 -1 -1 -1 -1 -1 -1 -1 -1 -1 -1 -1 -1 -1 -1 -1 -1 -1 -1 -1 -1
$$ -1 -1 -1 -1 -1 -1 -1 -1 -1 -1 -1 -1 -1 -1 -1 -1 -1 -1 -1 -1 -1 -1 -1 -1
$$ -1 -1 -1 -1 -1 -1 -1 -1 -1 -1 -1 -1 -1 -1 -1 -1 -1 -1 -1 -1 -1 -1 -1 -1
$$ -1 -1 -1 -1 -1 -1 -1 -1 -1 -1 -1 -1 -1 -1 -1 -1 -1 -1 -1 -1 -1 -1 -1 -1
$$ -1 -1 -1 -1 -1 -1 -1 -1 -1 -1 -1 -1 -1 -1 -1 -1 -1 -1 -1 -1 -1 -1 -1 -1
$$ -1 -1 -1 -1 -1 -1 -1 -1 -1 -1 -1 -1 -1 -1 -1 -1
$$ ##$RG_tab5= (0..255)
$$ -1 -1 -1 -1 -1 -1 -1 -1 -1 -1 -1 -1 -1 -1 -1 -1 -1 -1 -1 -1 -1 -1 -1 -1
$$ -1 -1 -1 -1 -1 -1 -1 -1 -1 -1 -1 -1 -1 -1 -1 -1 -1 -1 -1 -1 -1 -1 -1 -1
$$ -1 -1 -1 -1 -1 -1 -1 -1 -1 -1 -1 -1 -1 -1 -1 -1 -1 -1 -1 -1 -1 -1 -1 -1
$$ -1 -1 -1 -1 -1 -1 -1 -1 -1 -1 -1 -1 -1 -1 -1 -1 -1 -1 -1 -1 -1 -1 -1 -1
$$ -1 -1 -1 -1 -1 -1 -1 -1 -1 -1 -1 -1 -1 -1 -1 -1 -1 -1 -1 -1 -1 -1 -1 -1
$$ -1 -1 -1 -1 -1 -1 -1 -1 -1 -1 -1 -1 -1 -1 -1 -1 -1 -1 -1 -1 -1 -1 -1 -1
$$ -1 -1 -1 -1 -1 -1 -1 -1 -1 -1 -1 -1 -1 -1 -1 -1 -1 -1 -1 -1 -1 -1 -1 -1
$$ -1 -1 -1 -1 -1 -1 -1 -1 -1 -1 -1 -1 -1 -1 -1 -1 -1 -1 -1 -1 -1 -1 -1 -1
$$ -1 -1 -1 -1 -1 -1 -1 -1 -1 -1 -1 -1 -1 -1 -1 -1 -1 -1 -1 -1 -1 -1 -1 -1
$$ -1 -1 -1 -1 -1 -1 -1 -1 -1 -1 -1 -1 -1 -1 -1 -1 -1 -1 -1 -1 -1 -1 -1 -1
$$ -1 -1 -1 -1 -1 -1 -1 -1 -1 -1 -1 -1 -1 -1 -1 -1
$$ ##$RG_tab6= (0..255)
$$ -1 -1 -1 -1 -1 -1 -1 -1 -1 -1 -1 -1 -1 -1 -1 -1 -1 -1 -1 -1 -1 -1 -1 -1
$$ -1 -1 -1 -1 -1 -1 -1 -1 -1 -1 -1 -1 -1 -1 -1 -1 -1 -1 -1 -1 -1 -1 -1 -1
$$ -1 -1 -1 -1 -1 -1 -1 -1 -1 -1 -1 -1 -1 -1 -1 -1 -1 -1 -1 -1 -1 -1 -1 -1
$$ -1 -1 -1 -1 -1 -1 -1 -1 -1 -1 -1 -1 -1 -1 -1 -1 -1 -1 -1 -1 -1 -1 -1 -1
$$ -1 -1 -1 -1 -1 -1 -1 -1 -1 -1 -1 -1 -1 -1 -1 -1 -1 -1 -1 -1 -1 -1 -1 -1
$$ -1 -1 -1 -1 -1 -1 -1 -1 -1 -1 -1 -1 -1 -1 -1 -1 -1 -1 -1 -1 -1 -1 -1 -1
$$ -1 -1 -1 -1 -1 -1 -1 -1 -1 -1 -1 -1 -1 -1 -1 -1 -1 -1 -1 -1 -1 -1 -1 -1
$$ -1 -1 -1 -1 -1 -1 -1 -1 -1 -1 -1 -1 -1 -1 -1 -1 -1 -1 -1 -1 -1 -1 -1 -1
$$ -1 -1 -1 -1 -1 -1 -1 -1 -1 -1 -1 -1 -1 -1 -1 -1 -1 -1 -1 -1 -1 -1 -1 -1
$$ -1 -1 -1 -1 -1 -1 -1 -1 -1 -1 -1 -1 -1 -1 -1 -1 -1 -1 -1 -1 -1 -1 -1 -1
$$ -1 -1 -1 -1 -1 -1 -1 -1 -1 -1 -1 -1 -1 -1 -1 -1
$$ ##$RG_tab7= (0..255)
$$ -1 -1 -1 -1 -1 -1 -1 -1 -1 -1 -1 -1 -1 -1 -1 -1 -1 -1 -1 -1 -1 -1 -1 -1
$$ -1 -1 -1 -1 -1 -1 -1 -1 -1 -1 -1 -1 -1 -1 -1 -1 -1 -1 -1 -1 -1 -1 -1 -1
$$ -1 -1 -1 -1 -1 -1 -1 -1 -1 -1 -1 -1 -1 -1 -1 -1 -1 -1 -1 -1 -1 -1 -1 -1
$$ -1 -1 -1 -1 -1 -1 -1 -1 -1 -1 -1 -1 -1 -1 -1 -1 -1 -1 -1 -1 -1 -1 -1 -1
$$ -1 -1 -1 -1 -1 -1 -1 -1 -1 -1 -1 -1 -1 -1 -1 -1 -1 -1 -1 -1 -1 -1 -1 -1
$$ -1 -1 -1 -1 -1 -1 -1 -1 -1 -1 -1 -1 -1 -1 -1 -1 -1 -1 -1 -1 -1 -1 -1 -1
$$ -1 -1 -1 -1 -1 -1 -1 -1 -1 -1 -1 -1 -1 -1 -1 -1 -1 -1 -1 -1 -1 -1 -1 -1
$$ -1 -1 -1 -1 -1 -1 -1 -1 -1 -1 -1 -1 -1 -1 -1 -1 -1 -1 -1 -1 -1 -1 -1 -1
$$ -1 -1 -1 -1 -1 -1 -1 -1 -1 -1 -1 -1 -1 -1 -1 -1 -1 -1 -1 -1 -1 -1 -1 -1
$$ -1 -1 -1 -1 -1 -1 -1 -1 -1 -1 -1 -1 -1 -1 -1 -1 -1 -1 -1 -1 -1 -1 -1 -1
$$ -1 -1 -1 -1 -1 -1 -1 -1 -1 -1 -1 -1 -1 -1 -1 -1
$$ ##$RG_tab8= (0..255)
$$ -1 -1 -1 -1 -1 -1 -1 -1 -1 -1 -1 -1 -1 -1 -1 -1 -1 -1 -1 -1 -1 -1 -1 -1
$$ -1 -1 -1 -1 -1 -1 -1 -1 -1 -1 -1 -1 -1 -1 -1 -1 -1 -1 -1 -1 -1 -1 -1 -1
$$ -1 -1 -1 -1 -1 -1 -1 -1 -1 -1 -1 -1 -1 -1 -1 -1 -1 -1 -1 -1 -1 -1 -1 -1
$$ -1 -1 -1 -1 -1 -1 -1 -1 -1 -1 -1 -1 -1 -1 -1 -1 -1 -1 -1 -1 -1 -1 -1 -1
$$ -1 -1 -1 -1 -1 -1 -1 -1 -1 -1 -1 -1 -1 -1 -1 -1 -1 -1 -1 -1 -1 -1 -1 -1
$$ -1 -1 -1 -1 -1 -1 -1 -1 -1 -1 -1 -1 -1 -1 -1 -1 -1 -1 -1 -1 -1 -1 -1 -1
$$ -1 -1 -1 -1 -1 -1 -1 -1 -1 -1 -1 -1 -1 -1 -1 -1 -1 -1 -1 -1 -1 -1 -1 -1
$$ -1 -1 -1 -1 -1 -1 -1 -1 -1 -1 -1 -1 -1 -1 -1 -1 -1 -1 -1 -1 -1 -1 -1 -1
$$ -1 -1 -1 -1 -1 -1 -1 -1 -1 -1 -1 -1 -1 -1 -1 -1 -1 -1 -1 -1 -1 -1 -1 -1
$$ -1 -1 -1 -1 -1 -1 -1 -1 -1 -1 -1 -1 -1 -1 -1 -1 -1 -1 -1 -1 -1 -1 -1 -1
$$ -1 -1 -1 -1 -1 -1 -1 -1 -1 -1 -1 -1 -1 -1 -1 -1
$$ ##$RG_tabA= (0..255)
$$ 0.25 0.28 0.32 0.35 0.4 0.44 0.5 0.56 0.64 0.7 0.8 0.89 1 1.12 1.28 1.4
$$ 1.6 1.78 2 2.25 2.56 2.8 3.2 3.56 4 4.5 5 5.6 6.35 7.12 8 9 10 11.3 12.7
$$ 14.2 16 18 20.2 22.6 25.4 28.5 32 36 40.3 45.2 50.8 57 64 71.8 80.6 90.5
$$ 101 114 128 144 161 181 203 -1 -1 -1 -1 -1 -1 -1 -1 -1 -1 -1 -1 -1 -1 -1
$$ -1 -1 -1 -1 -1 -1 -1 -1 -1 -1 -1 -1 -1 -1 -1 -1 -1 -1 -1 -1 -1 -1 -1 -1
$$ -1 -1 -1 -1 -1 -1 -1 -1 -1 -1 -1 -1 -1 -1 -1 -1 -1 -1 -1 -1 -1 -1 -1 -1
$$ -1 -1 -1 -1 -1 -1 -1 -1 -1 -1 -1 -1 -1 -1 -1 -1 -1 -1 -1 -1 -1 -1 -1 -1
$$ -1 -1 -1 -1 -1 -1 -1 -1 -1 -1 -1 -1 -1 -1 -1 -1 -1 -1 -1 -1 -1 -1 -1 -1
$$ -1 -1 -1 -1 -1 -1 -1 -1 -1 -1 -1 -1 -1 -1 -1 -1 -1 -1 -1 -1 -1 -1 -1 -1
$$ -1 -1 -1 -1 -1 -1 -1 -1 -1 -1 -1 -1 -1 -1 -1 -1 -1 -1 -1 -1 -1 -1 -1 -1
$$ -1 -1 -1 -1 -1 -1 -1 -1 -1 -1 -1 -1 -1 -1 -1 -1 -1 -1 -1 -1 -1 -1 -1 -1
$$ -1 -1 -1 -1 -1 -1 -1 -1 -1 -1 -1 -1 -1 -1
$$ ##$ROBOTTY= <no>
$$ ##$ROUT14= (0..7)
$$ 0 0 0 0 0 0 0 0
$$ ##$ROUTER= -1
$$ ##$RX22TY= <no>
$$ ##$RXFMAX= (0..7)
$$ 647.5 -1 -1 -1 -1 -1 -1 -1
$$ ##$RXFMIN= (0..7)
$$ 5 -1 -1 -1 -1 -1 -1 -1
$$ ##$RXINTLV= (0..7)
$$ 1 0 0 0 0 0 0 0
$$ ##$RXMSTY= <no>
$$ ##$RockSwitchEth= <no>
$$ ##$SCMTY= <no>
$$ ##$SGUC1= (0..15)
$$ 17 18 0 0 0 0 0 0 0 0 0 0 0 0 0 0
$$ ##$SGUC2= (0..15)
$$ 33 256 0 0 0 0 0 0 0 0 0 0 0 0 0 0
$$ ##$SLCBCONF= <SHNV>
$$ ##$SPECTR= 10
$$ ##$SY2FLAG= 0
$$ ##$SYNCTRIG= 11
$$ ##$SamChgEth= (0..3)
$$ <149.236.99.140> <no> <no> <no>
$$ ##$SamChgProtocol= (0..3)
$$ <SOAP> <> <> <>
$$ ##$ServiceNo= <>
$$ ##$Sgu1PowerLevels= (0..7)
$$ 90 74 58 42 26 10 0 0
$$ ##$Sgu2PowerLevels= (0..7)
$$ 90 74 58 42 26 10 0 0
$$ ##$Sgu3PowerLevels= (0..7)
$$ 0 0 0 0 0 0 0 0
$$ ##$Sgu4PowerLevels= (0..7)
$$ 0 0 0 0 0 0 0 0
$$ ##$Sgu5PowerLevels= (0..7)
$$ 0 0 0 0 0 0 0 0
$$ ##$Sgu6PowerLevels= (0..7)
$$ 0 0 0 0 0 0 0 0
$$ ##$Sgu7PowerLevels= (0..7)
$$ 0 0 0 0 0 0 0 0
$$ ##$Sgu8PowerLevels= (0..7)
$$ 0 0 0 0 0 0 0 0
$$ ##$SguType= 3
$$ ##$ShimMaxVal= 32760
$$ ##$ShimPow1Ch2Sh= (0..38)
$$ 0 0 0 0 0 0 0 0 0 0 0 0 0 0 0 0 0 0 0 0 0 0 0 0 0 0 0 0 0 0 0 0 0 0 0 0
$$ 0 0 0
$$ ##$ShimPow1Imax= (0..38)
$$ 0 0 0 0 0 0 0 0 0 0 0 0 0 0 0 0 0 0 0 0 0 0 0 0 0 0 0 0 0 0 0 0 0 0 0 0
$$ 0 0 0
$$ ##$ShimPow1NChan= 0
$$ ##$ShimPow1TotIMax= 0
$$ ##$ShimPow1Vmax= (0..38)
$$ 0 0 0 0 0 0 0 0 0 0 0 0 0 0 0 0 0 0 0 0 0 0 0 0 0 0 0 0 0 0 0 0 0 0 0 0
$$ 0 0 0
$$ ##$ShimPow2Ch2Sh= (0..38)
$$ 0 0 0 0 0 0 0 0 0 0 0 0 0 0 0 0 0 0 0 0 0 0 0 0 0 0 0 0 0 0 0 0 0 0 0 0
$$ 0 0 0
$$ ##$ShimPow2Imax= (0..38)
$$ 0 0 0 0 0 0 0 0 0 0 0 0 0 0 0 0 0 0 0 0 0 0 0 0 0 0 0 0 0 0 0 0 0 0 0 0
$$ 0 0 0
$$ ##$ShimPow2NChan= 0
$$ ##$ShimPow2TotIMax= 0
$$ ##$ShimPow2Vmax= (0..38)
$$ 0 0 0 0 0 0 0 0 0 0 0 0 0 0 0 0 0 0 0 0 0 0 0 0 0 0 0 0 0 0 0 0 0 0 0 0
$$ 0 0 0
$$ ##$ShimPow3Ch2Sh= (0..38)
$$ 0 0 0 0 0 0 0 0 0 0 0 0 0 0 0 0 0 0 0 0 0 0 0 0 0 0 0 0 0 0 0 0 0 0 0 0
$$ 0 0 0
$$ ##$ShimPow3Imax= (0..38)
$$ 0 0 0 0 0 0 0 0 0 0 0 0 0 0 0 0 0 0 0 0 0 0 0 0 0 0 0 0 0 0 0 0 0 0 0 0
$$ 0 0 0
$$ ##$ShimPow3NChan= 0
$$ ##$ShimPow3TotIMax= 0
$$ ##$ShimPow3Vmax= (0..38)
$$ 0 0 0 0 0 0 0 0 0 0 0 0 0 0 0 0 0 0 0 0 0 0 0 0 0 0 0 0 0 0 0 0 0 0 0 0
$$ 0 0 0
$$ ##$ShimPow4Ch2Sh= (0..38)
$$ 0 0 0 0 0 0 0 0 0 0 0 0 0 0 0 0 0 0 0 0 0 0 0 0 0 0 0 0 0 0 0 0 0 0 0 0
$$ 0 0 0
$$ ##$ShimPow4Imax= (0..38)
$$ 0 0 0 0 0 0 0 0 0 0 0 0 0 0 0 0 0 0 0 0 0 0 0 0 0 0 0 0 0 0 0 0 0 0 0 0
$$ 0 0 0
$$ ##$ShimPow4NChan= 0
$$ ##$ShimPow4TotIMax= 0
$$ ##$ShimPow4Vmax= (0..38)
$$ 0 0 0 0 0 0 0 0 0 0 0 0 0 0 0 0 0 0 0 0 0 0 0 0 0 0 0 0 0 0 0 0 0 0 0 0
$$ 0 0 0
$$ ##$ShimPowMaxUA= (0..63)
$$ 130000 130000 130000 130000 130000 130000 130000 130000 130000 130000 130000
$$ 130000 130000 130000 130000 130000 130000 130000 130000 130000 0 0 0 0
$$ 0 0 0 0 0 0 0 0 0 0 0 0 0 0 0 0 0 0 0 0 0 0 0 0 0 0 0 0 0 0 0 0 0 0 0 0
$$ 0 0 0 0
$$ ##$ShimPowMaxUC= (0..63)
$$ 130000 130000 130000 130000 130000 130000 130000 130000 130000 130000 130000
$$ 130000 130000 130000 130000 130000 130000 130000 130000 130000 0 0 0 0
$$ 0 0 0 0 0 0 0 0 0 0 0 0 0 0 0 0 0 0 0 0 0 0 0 0 0 0 0 0 0 0 0 0 0 0 0 0
$$ 0 0 0 0
$$ ##$ShimPowMaxUG= (0..63)
$$ 524287 524287 524287 524287 524287 524287 524287 524287 524287 524287 524287
$$ 524287 524287 524287 524287 524287 524287 524287 524287 524287 0 0 0 0
$$ 0 0 0 0 0 0 0 0 0 0 0 0 0 0 0 0 0 0 0 0 0 0 0 0 0 0 0 0 0 0 0 0 0 0 0 0
$$ 0 0 0 0
$$ ##$ShimPowNum= 0
$$ ##$ShimPowRcbType= 3
$$ ##$ShimPowRes= (0..63)
$$ 1e-20 1e-20 1e-20 1e-20 1e-20 1e-20 1e-20 1e-20 1e-20 1e-20 1e-20 1e-20
$$ 1e-20 1e-20 1e-20 1e-20 1e-20 1e-20 1e-20 1e-20 0 0 0 0 0 0 0 0 0 0 0 0
$$ 0 0 0 0 0 0 0 0 0 0 0 0 0 0 0 0 0 0 0 0 0 0 0 0 0 0 0 0 0 0 0 0
$$ ##$ShimPowRng0= (0..63)
$$ 1 1 1 1 1 1 1 1 1 1 1 1 1 1 1 1 1 1 1 1 0 0 0 0 0 0 0 0 0 0 0 0 0 0 0 0
$$ 0 0 0 0 0 0 0 0 0 0 0 0 0 0 0 0 0 0 0 0 0 0 0 0 0 0 0 0
$$ ##$ShimPowRng1= (0..63)
$$ 1 1 1 1 1 1 1 1 1 1 1 1 1 1 1 1 1 1 1 1 0 0 0 0 0 0 0 0 0 0 0 0 0 0 0 0
$$ 0 0 0 0 0 0 0 0 0 0 0 0 0 0 0 0 0 0 0 0 0 0 0 0 0 0 0 0
$$ ##$ShimPowRng2= (0..63)
$$ 1 1 1 1 1 1 1 1 1 1 1 1 1 1 1 1 1 1 1 1 0 0 0 0 0 0 0 0 0 0 0 0 0 0 0 0
$$ 0 0 0 0 0 0 0 0 0 0 0 0 0 0 0 0 0 0 0 0 0 0 0 0 0 0 0 0
$$ ##$ShimPowRng3= (0..63)
$$ 1 1 1 1 1 1 1 1 1 1 1 1 1 1 1 1 1 1 1 1 0 0 0 0 0 0 0 0 0 0 0 0 0 0 0 0
$$ 0 0 0 0 0 0 0 0 0 0 0 0 0 0 0 0 0 0 0 0 0 0 0 0 0 0 0 0
$$ ##$ShimPowType1= 0
$$ ##$ShimPowType2= 0
$$ ##$ShimPowType3= 0
$$ ##$ShimPowType4= 0
$$ ##$ShimSysAngle= <>
$$ ##$ShimSysFunc= (0..63)
$$ 1 2 3 4 5 7 9 11 15 16 8 10 12 14 6 17 13 18 19 20 0 0 0 0 0 0 0 0 0 0
$$ 0 0 0 0 0 0 0 0 0 0 0 0 0 0 0 0 0 0 0 0 0 0 0 0 0 0 0 0 0 0 0 0 0 0
$$ ##$ShimSysMatId= <no>
$$ ##$ShimSysMatrix= 1
$$ ##$ShimSysOffset= <>
$$ ##$ShimSysType= 1
$$ ##$ShimUnit= 0
$$ ##$TFXNUM= 0
$$ ##$TOSITY= <no>
$$ ##$TRIPLO2= 0
$$ ##$VTU= 2
$$ ##$VTUETH= <149.236.99.21>
$$ ##$VTUTY= <no>
$$ ##$WBREFAM= (0..15)
$$ 99.8 100 100 100 100 100 100 100 100 100 100 100 100 100 100 100
$$ ##$WBREFLM= (0..15)
$$ 1 0 0 0 0 0 0 0 0 0 0 0 0 0 0 0
$$ ##$WBREFPH= (0..15)
$$ -0.02 0 0 0 0 0 0 0 0 0 0 0 0 0 0 0
$$ ##$WBSGU= (0..15)
$$ 0 0 0 0 0 0 0 0 0 0 0 0 0 0 0 0
$$ ##$XFAC= 2
$$ ##END=
##$RELAX= 
##$BRUKER FILE PROC=eretic
$$ ##TITLE= Parameter file, TopSpin 3.6.2
$$ ##JCAMPDX= 5.0
$$ ##DATATYPE= Parameter Values
$$ ##NPOINTS= 1	$$ modification sequence number
$$ ##ORIGIN= Bruker BioSpin GmbH
$$ ##OWNER= nmrsu
$$ $$ 2024-11-30 04:59:13.636 +0000  nmrsu@cyan.ch.man.ac.uk
$$ $$ /mnt/nasr/NMR/Service/data/n82265as/nmr/20241128-1542-B400_B.11-13/10/pdata/1/eretic
$$ $$ process /opt/topspin3.6.2/prog/mod/dirdata
$$ ##$CAL= 1
$$ ##$CALACQUDATE= <>
$$ ##$CALDATE= <>
$$ ##$ECONC= 50
$$ ##$ECONCU= <mmol/l>
$$ ##$ECORR= 1
$$ ##$EINT= 8650966.99609375
$$ ##$ELW= 1
$$ ##$EPOS= 0
$$ ##$ESCAL= 1
$$ ##$EUNIT= <>
$$ ##$INTSCL= 1
$$ ##$NS= 4
$$ ##$P1= 11.75
$$ ##$PP= <noesy1d>
$$ ##$PROBHD= <>
$$ ##$QUANTACQUDATE= <>
$$ ##$QUANTDATE= <>
$$ ##$RECONC= 50
$$ ##$RECONCU= <mmol/l>
$$ ##$REFSPEC= <C:/Bruker/TopSpin3.1.6/data/PTG/nmr/fastlane_quantref_cyclo/12>
$$ ##$REINT= 8650966.99609375
$$ ##$REINTERR= 1032.15924844093
$$ ##$RELW= 1
$$ ##$RENSPIN= 1
$$ ##$REPOS= 0
$$ ##$REREG= <8.364570787421922/8.138265153457409>
$$ ##$REUNIT= <>
$$ ##$RG= 15.61
$$ ##$RORIGIN= <C:/Bruker/TopSpin3.1.6/data/lancaster/nmr/Dec06-2012-lancaster/26/pdata/1>
$$ ##$RPROBHD= <5 mm CPPBBO BB-1H/19F/D Z-GRD Z122623/0009>
$$ ##$SI= 65536
$$ ##$SW= 20.5524040342477
$$ ##$TE= 298.0007
$$ ##$scaledByNS= no
$$ ##$scaledByRG= no
$$ ##END=
##$RELAX= 
##$BRUKER FILE PROC=intrng
$$ P 0
$$ 8.152295   6.971702
$$ 6.250926   5.849449
$$ 5.272326   3.843319
##$RELAX= 
##$BRUKER FILE PROC=parm.txt
$$ 
$$ Current Data Parameters
$$ NAME     20241128-1542-B400_B.11-13              
$$ EXPNO                10              
$$ PROCNO                1              
$$ 
$$ F2 - Acquisition Parameters
$$ Date_          20241130              
$$ Time               4.59 h            
$$ INSTRUM           spect              
$$ PROBHD   Z108618_0671 (              
$$ PULPROG            zg30              
$$ TD                65536              
$$ SOLVENT           CDCl3              
$$ NS                   16              
$$ DS                    2              
$$ SWH            8223.685 Hz           
$$ FIDRES         0.250967 Hz           
$$ AQ            3.9845889 sec          
$$ RG                  181              
$$ DW               60.800 usec         
$$ DE                 6.50 usec         
$$ TE                298.0 K            
$$ D1           1.00000000 sec          
$$ TD0                   1              
$$ SFO1        400.0724004 MHz          
$$ NUC1                 1H              
$$ P0                 5.00 usec         
$$ P1                15.00 usec         
$$ PLW1        10.69200039 W            
$$ 
$$ F2 - Processing parameters
$$ SI                32768              
$$ SF          400.0700000 MHz          
$$ WDW                  EM              
$$ SSB                   0              
$$ LB                 0.30 Hz           
$$ GB                    0              
$$ PC                 1.00              
##$RELAX= 
##$BRUKER FILE PROC=peaklist.xml
$$ <?xml version="1.0" encoding="UTF-8"?>
$$ <PeakList>
$$   <PeakList1D>
$$     <PeakList1DHeader creator="nmrsu" date="2024-11-30T04:59:13.007+00:00" expNo="10" name="20241128-1542-B400_B.11-13" owner="" procNo="1" source="/mnt/nmrdata/Service/data/n82265as/nmr">
$$       <PeakPickDetails>F1=16.277809ppm, F2=-4.277804ppm, MI=0.00cm, MAXI=10000.00cm, PC=1.000
$$       </PeakPickDetails>
$$     </PeakList1DHeader>
$$     <Peak1D F1="12.628198" intensity="4.959540e-03" type="0"/>
$$     <Peak1D F1="10.057722" intensity="9.838713e-03" type="0"/>
$$     <Peak1D F1="8.154983" intensity="4.362383e-02" type="0"/>
$$     <Peak1D F1="8.135733" intensity="4.715672e-02" type="0"/>
$$     <Peak1D F1="8.131541" intensity="4.551590e-02" type="0"/>
$$     <Peak1D F1="8.123158" intensity="9.144078e-02" type="0"/>
$$     <Peak1D F1="8.105402" intensity="9.957956e-02" type="0"/>
$$     <Peak1D F1="8.101993" intensity="8.357948e-02" type="0"/>
$$     <Peak1D F1="8.020473" intensity="4.332848e-01" type="0"/>
$$     <Peak1D F1="8.002673" intensity="4.953882e-01" type="0"/>
$$     <Peak1D F1="7.999341" intensity="4.131347e-01" type="0"/>
$$     <Peak1D F1="7.954555" intensity="9.773921e+00" type="0"/>
$$     <Peak1D F1="7.941044" intensity="3.018271e+00" type="0"/>
$$     <Peak1D F1="7.936599" intensity="1.102286e+01" type="0"/>
$$     <Peak1D F1="7.933188" intensity="9.034377e+00" type="0"/>
$$     <Peak1D F1="7.838505" intensity="1.348633e-02" type="0"/>
$$     <Peak1D F1="7.802153" intensity="9.546022e-03" type="0"/>
$$     <Peak1D F1="7.763248" intensity="2.381801e-02" type="0"/>
$$     <Peak1D F1="7.752358" intensity="5.624699e-02" type="0"/>
$$     <Peak1D F1="7.747749" intensity="5.240376e-02" type="0"/>
$$     <Peak1D F1="7.744954" intensity="5.136235e-02" type="0"/>
$$     <Peak1D F1="7.731061" intensity="5.794605e-02" type="0"/>
$$     <Peak1D F1="7.709503" intensity="1.132805e-01" type="0"/>
$$     <Peak1D F1="7.690885" intensity="2.727213e-01" type="0"/>
$$     <Peak1D F1="7.675242" intensity="1.112711e-01" type="0"/>
$$     <Peak1D F1="7.672266" intensity="1.829925e-01" type="0"/>
$$     <Peak1D F1="7.669267" intensity="1.095398e-01" type="0"/>
$$     <Peak1D F1="7.641649" intensity="5.018911e-02" type="0"/>
$$     <Peak1D F1="7.623363" intensity="1.084460e-01" type="0"/>
$$     <Peak1D F1="7.604500" intensity="7.739890e-02" type="0"/>
$$     <Peak1D F1="7.565300" intensity="2.593708e+00" type="0"/>
$$     <Peak1D F1="7.562545" intensity="1.663604e+00" type="0"/>
$$     <Peak1D F1="7.546723" intensity="6.370837e+00" type="0"/>
$$     <Peak1D F1="7.531178" intensity="2.487152e+00" type="0"/>
$$     <Peak1D F1="7.528229" intensity="4.201950e+00" type="0"/>
$$     <Peak1D F1="7.525380" intensity="2.554850e+00" type="0"/>
$$     <Peak1D F1="7.510587" intensity="1.418694e-01" type="0"/>
$$     <Peak1D F1="7.498975" intensity="7.027090e-02" type="0"/>
$$     <Peak1D F1="7.490748" intensity="1.457522e-01" type="0"/>
$$     <Peak1D F1="7.481806" intensity="6.252309e-02" type="0"/>
$$     <Peak1D F1="7.471812" intensity="9.889056e-02" type="0"/>
$$     <Peak1D F1="7.441523" intensity="7.875633e+00" type="0"/>
$$     <Peak1D F1="7.421762" intensity="1.141680e+01" type="0"/>
$$     <Peak1D F1="7.407078" intensity="2.257510e+00" type="0"/>
$$     <Peak1D F1="7.402954" intensity="5.275418e+00" type="0"/>
$$     <Peak1D F1="7.386151" intensity="1.129944e+00" type="0"/>
$$     <Peak1D F1="7.380419" intensity="2.524619e+00" type="0"/>
$$     <Peak1D F1="7.365280" intensity="2.650464e+01" type="0"/>
$$     <Peak1D F1="7.359910" intensity="1.494189e+01" type="0"/>
$$     <Peak1D F1="7.349412" intensity="1.325088e+01" type="0"/>
$$     <Peak1D F1="7.343852" intensity="2.735391e+00" type="0"/>
$$     <Peak1D F1="7.334845" intensity="2.278719e+00" type="0"/>
$$     <Peak1D F1="7.329822" intensity="3.515254e+00" type="0"/>
$$     <Peak1D F1="7.317684" intensity="3.117027e+00" type="0"/>
$$     <Peak1D F1="7.311750" intensity="4.123910e+00" type="0"/>
$$     <Peak1D F1="7.304769" intensity="3.274603e+00" type="0"/>
$$     <Peak1D F1="7.298611" intensity="2.595934e+00" type="0"/>
$$     <Peak1D F1="7.295845" intensity="3.285055e+00" type="0"/>
$$     <Peak1D F1="7.287485" intensity="6.124915e+00" type="0"/>
$$     <Peak1D F1="7.281353" intensity="1.204237e+00" type="0"/>
$$     <Peak1D F1="7.274813" intensity="7.322739e-01" type="0"/>
$$     <Peak1D F1="7.264841" intensity="9.513964e-02" type="0"/>
$$     <Peak1D F1="7.236878" intensity="4.974210e-02" type="0"/>
$$     <Peak1D F1="7.218445" intensity="6.198675e-02" type="0"/>
$$     <Peak1D F1="7.200343" intensity="2.542457e-02" type="0"/>
$$     <Peak1D F1="7.196623" intensity="2.955740e-02" type="0"/>
$$     <Peak1D F1="7.179562" intensity="5.711994e-02" type="0"/>
$$     <Peak1D F1="7.164625" intensity="5.319536e-02" type="0"/>
$$     <Peak1D F1="7.157676" intensity="4.776406e-02" type="0"/>
$$     <Peak1D F1="7.147957" intensity="4.957158e-02" type="0"/>
$$     <Peak1D F1="7.130340" intensity="2.167765e-02" type="0"/>
$$     <Peak1D F1="7.126314" intensity="2.159931e-02" type="0"/>
$$     <Peak1D F1="7.118745" intensity="1.065260e-02" type="0"/>
$$     <Peak1D F1="7.110643" intensity="1.542129e-02" type="0"/>
$$     <Peak1D F1="7.103861" intensity="1.913921e-02" type="0"/>
$$     <Peak1D F1="7.096818" intensity="1.567729e-02" type="0"/>
$$     <Peak1D F1="7.089681" intensity="1.517813e-02" type="0"/>
$$     <Peak1D F1="7.082923" intensity="1.255927e-02" type="0"/>
$$     <Peak1D F1="7.075024" intensity="7.744093e-03" type="0"/>
$$     <Peak1D F1="7.023529" intensity="2.466515e-02" type="0"/>
$$     <Peak1D F1="6.167956" intensity="7.954636e-02" type="0"/>
$$     <Peak1D F1="6.144649" intensity="6.335538e-03" type="0"/>
$$     <Peak1D F1="6.091548" intensity="9.418491e-03" type="0"/>
$$     <Peak1D F1="5.986420" intensity="1.500000e+01" type="0"/>
$$     <Peak1D F1="5.801052" intensity="7.641901e-02" type="0"/>
$$     <Peak1D F1="5.189845" intensity="5.580866e-03" type="0"/>
$$     <Peak1D F1="5.023488" intensity="1.038920e-02" type="0"/>
$$     <Peak1D F1="5.012937" intensity="1.142933e-02" type="0"/>
$$     <Peak1D F1="5.007232" intensity="1.157774e-02" type="0"/>
$$     <Peak1D F1="4.987731" intensity="1.178258e-02" type="0"/>
$$     <Peak1D F1="4.583649" intensity="3.352103e-01" type="0"/>
$$     <Peak1D F1="4.320976" intensity="3.310130e-02" type="0"/>
$$     <Peak1D F1="4.290845" intensity="2.429427e-02" type="0"/>
$$     <Peak1D F1="4.224243" intensity="1.697758e-02" type="0"/>
$$     <Peak1D F1="4.189800" intensity="1.416613e-02" type="0"/>
$$     <Peak1D F1="4.176357" intensity="1.284882e-02" type="0"/>
$$     <Peak1D F1="4.145432" intensity="1.178730e-02" type="0"/>
$$     <Peak1D F1="4.113397" intensity="9.009273e-03" type="0"/>
$$     <Peak1D F1="4.089945" intensity="8.935447e-03" type="0"/>
$$     <Peak1D F1="4.053217" intensity="7.721410e-03" type="0"/>
$$     <Peak1D F1="4.013462" intensity="8.572884e-03" type="0"/>
$$     <Peak1D F1="4.003542" intensity="6.678444e-03" type="0"/>
$$     <Peak1D F1="3.975293" intensity="2.375514e-02" type="0"/>
$$     <Peak1D F1="3.934671" intensity="6.049097e-03" type="0"/>
$$     <Peak1D F1="3.887515" intensity="5.104291e-03" type="0"/>
$$     <Peak1D F1="3.810755" intensity="4.928010e-03" type="0"/>
$$     <Peak1D F1="3.744886" intensity="4.768962e-03" type="0"/>
$$     <Peak1D F1="3.301697" intensity="4.896009e-03" type="0"/>
$$     <Peak1D F1="3.266082" intensity="5.028498e-03" type="0"/>
$$     <Peak1D F1="3.010078" intensity="4.703913e-03" type="0"/>
$$     <Peak1D F1="2.717672" intensity="5.044152e-03" type="0"/>
$$     <Peak1D F1="2.698732" intensity="5.200212e-03" type="0"/>
$$     <Peak1D F1="2.628517" intensity="5.185519e-03" type="0"/>
$$     <Peak1D F1="2.500537" intensity="6.365526e-03" type="0"/>
$$     <Peak1D F1="2.440718" intensity="6.770357e-03" type="0"/>
$$     <Peak1D F1="2.360032" intensity="8.029506e-03" type="0"/>
$$     <Peak1D F1="2.331098" intensity="7.786065e-03" type="0"/>
$$     <Peak1D F1="2.237855" intensity="9.292373e-03" type="0"/>
$$     <Peak1D F1="2.140489" intensity="1.124580e-02" type="0"/>
$$     <Peak1D F1="1.996741" intensity="1.152884e-02" type="0"/>
$$     <Peak1D F1="1.984569" intensity="1.275717e-02" type="0"/>
$$     <Peak1D F1="1.960359" intensity="1.250320e-02" type="0"/>
$$     <Peak1D F1="1.929762" intensity="1.264480e-02" type="0"/>
$$     <Peak1D F1="1.875655" intensity="1.279177e-02" type="0"/>
$$     <Peak1D F1="1.836885" intensity="1.229609e-02" type="0"/>
$$     <Peak1D F1="1.724556" intensity="9.315336e-03" type="0"/>
$$     <Peak1D F1="1.624383" intensity="9.404839e-03" type="0"/>
$$     <Peak1D F1="1.529531" intensity="7.988131e-03" type="0"/>
$$     <Peak1D F1="1.491179" intensity="6.459847e-03" type="0"/>
$$     <Peak1D F1="1.419075" intensity="6.570447e-03" type="0"/>
$$     <Peak1D F1="1.400687" intensity="5.900471e-03" type="0"/>
$$     <Peak1D F1="1.336934" intensity="9.564448e-03" type="0"/>
$$     <Peak1D F1="1.298003" intensity="2.952411e-02" type="0"/>
$$     <Peak1D F1="0.917089" intensity="1.026147e-02" type="0"/>
$$     <Peak1D F1="0.899311" intensity="5.460416e-03" type="0"/>
$$     <Peak1D F1="-2.659673" intensity="4.707230e-03" type="0"/>
$$   </PeakList1D>
$$ </PeakList>
##$RELAX= 
##$BRUKER FILE PROC=peakrng
$$ P    #regions in PPM
$$ # 2024-11-30 04:59:13 +0000  nmrsu@cyan.ch.man.ac.uk
$$ # low field   high field   mi   maxi
$$   16.2778091430664  -4.27780415092297  0.000  10000.000  # for region 1
##$RELAX= 
$$ Bruker specific parameters
$$ --------------------------
##$DATPATH= <C:/Users/n82265as/The University of Manchester Dropbox/Aminata Sakho/Winter chemicals/data/original_good>
##$EXPNO= 10
##$NAME= <20241128-1542-B400_B.11-13>
##$PROCNO= 1
##$ACQT0= -2.55872630837368
##$AMP= (0..31)
100 100 100 100 100 100 100 100 100 100 100 100 100 100 100 100 100 100
100 100 100 100 100 100 100 100 100 100 100 100 100 100
##$AMPCOIL= (0..32)
-1 0 0 0 0 0 0 0 0 0 0 0 0 0 0 0 0 0 0 0 0 0 0 0 0 0 0 0 0 0 0 0 0
##$AQSEQ= 0
##$AQ_mod= 3
##$AUNM= <au_zg>
##$AUTOPOS= <13 >
##$BF1= 400.07
##$BF2= 400.07
##$BF3= 400.07
##$BF4= 400.07
##$BF5= 400.07
##$BF6= 400.07
##$BF7= 400.07
##$BF8= 400.07
##$BWFAC= (0..63)
0 0 0 0 0 0 0 0 0 0 0 0 0 0 0 0 0 0 0 0 0 0 0 0 0 0 0 0 0 0 0 0 0 0 0 0
0 0 0 0 0 0 0 0 0 0 0 0 0 0 0 0 0 0 0 0 0 0 0 0 0 0 0 0
##$BYTORDA= 0
##$CHANFCU= (0..24)
0 0 0 0 0 0 0 0 0 0 0 0 0 0 0 0 0 0 0 0 0 0 0 0 0
##$CHANREC= (0..24)
0 0 0 0 0 0 0 0 0 0 0 0 0 0 0 0 0 0 0 0 0 0 0 0 0
##$CHEMSTR= <none>
##$CNST= (0..63)
1 1 145 1 1 1 1 1 1 1 1 1 1 1 1 1 1 1 1 1 1 1 1 1 1 1 1 1 1 1 1 1 1 1 1
1 1 1 1 1 1 1 1 1 1 1 1 1 1 1 1 1 1 1 1 1 1 1 1 1 1 1 1 1
##$CPDPRG= (0..8)
<> <> <> <> <mlev> <mlev> <mlev> <mlev> <mlev>
##$D= (0..63)
0 1 0 0 0 0 0 0 0 0 0 0 0 0 0 0 0.0002 0 0 0 0 0 0 0 0 0 0 0 0 0 0 0 0
0 0 0 0 0 0 0 0 0 0 0 0 0 0 0 0 0 0 0 0 0 0 0 0 0 0 0 0 0 0 0
##$DATE= 1732942751
##$DATE_START= 0
##$DE= 6.5
##$DECBNUC= <off>
##$DECIM= 2432
##$DECNUC= <off>
##$DECSTAT= 4
##$DIGMOD= 1
##$DIGTYP= 12
##$DR= 22
##$DS= 2
##$DSPFIRM= 0
##$DSPFVS= 20
##$DTYPA= 0
##$EXP= <H1_Day16>
##$ExpStatus= 0
##$FCUCHAN= (0..9)
0 2 0 0 0 0 0 0 0 0
##$FILCOR= 0
##$FL1= 90
##$FL2= 90
##$FL3= 90
##$FL4= 90
##$FN_INDIRECT= (0..7)
0 0 0 0 0 0 0 0
##$FOV= 20
##$FQ1LIST= <freqlist>
##$FQ2LIST= <freqlist>
##$FQ3LIST= <freqlist>
##$FQ4LIST= <freqlist>
##$FQ5LIST= <freqlist>
##$FQ6LIST= <freqlist>
##$FQ7LIST= <freqlist>
##$FQ8LIST= <freqlist>
##$FS= (0..7)
83 83 83 83 83 83 83 83
##$FTLPGN= 0
##$FW= 125000
##$FnILOOP= 0
##$FnMODE= 0
##$FnTYPE= 0
##$GPNAM= (0..31)
<sine.100> <sine.100> <sine.100> <sine.100> <sine.100> <sine.100> <sine.100>
<sine.100> <sine.100> <sine.100> <sine.100> <sine.100> <sine.100> <sine.100>
<sine.100> <sine.100> <sine.100> <sine.100> <sine.100> <sine.100> <sine.100>
<sine.100> <sine.100> <sine.100> <sine.100> <sine.100> <sine.100> <sine.100>
<sine.100> <sine.100> <sine.100> <sine.100>
##$GPX= (0..31)
0 0 0 0 0 0 0 0 0 0 0 0 0 0 0 0 0 0 0 0 0 0 0 0 0 0 0 0 0 0 0 0
##$GPY= (0..31)
0 0 0 0 0 0 0 0 0 0 0 0 0 0 0 0 0 0 0 0 0 0 0 0 0 0 0 0 0 0 0 0
##$GPZ= (0..31)
0 0 0 0 0 0 0 0 0 0 0 0 0 0 0 0 0 0 0 0 0 0 0 0 0 0 0 0 0 0 0 0
##$GRPDLY= 67.9842224121094
##$HDDUTY= 20
##$HDRATE= 20
##$HGAIN= (0..3)
0 0 0 0
##$HOLDER= 13
##$HPMOD= (0..32)
0 0 0 0 0 0 0 0 0 0 0 0 0 0 0 0 0 0 0 0 0 0 0 0 0 0 0 0 0 0 0 0 0
##$HPPRGN= 0
##$IN= (0..63)
0.001 0.001 0.001 0.001 0.001 0.001 0.001 0.001 0.001 0.001 0.001 0.001
0.001 0.001 0.001 0.001 0.001 0.001 0.001 0.001 0.001 0.001 0.001 0.001
0.001 0.001 0.001 0.001 0.001 0.001 0.001 0.001 0.001 0.001 0.001 0.001
0.001 0.001 0.001 0.001 0.001 0.001 0.001 0.001 0.001 0.001 0.001 0.001
0.001 0.001 0.001 0.001 0.001 0.001 0.001 0.001 0.001 0.001 0.001 0.001
0.001 0.001 0.001 0.001
##$INF= (0..7)
0 0 0 0 0 0 0 0
##$INP= (0..63)
0 0 0 0 0 0 0 0 0 0 0 0 0 0 0 0 0 0 0 0 0 0 0 0 0 0 0 0 0 0 0 0 0 0 0 0
0 0 0 0 0 0 0 0 0 0 0 0 0 0 0 0 0 0 0 0 0 0 0 0 0 0 0 0
##$INSTRUM= <spect>
##$INTEGFAC= (0..63)
0 0 0 0 0 0 0 0 0 0 0 0 0 0 0 0 0 0 0 0 0 0 0 0 0 0 0 0 0 0 0 0 0 0 0 0
0 0 0 0 0 0 0 0 0 0 0 0 0 0 0 0 0 0 0 0 0 0 0 0 0 0 0 0
##$L= (0..31)
1 1 1 1 1 1 1 1 1 1 1 1 1 1 1 1 1 1 1 1 1 1 1 1 1 1 1 1 1 1 1 1
##$LFILTER= 100
##$LGAIN= -12
##$LINPSTP= 0
##$LOCKED= yes
##$LOCKFLD= -2718
##$LOCKGN= 120.542304992676
##$LOCKPOW= -13
##$LOCKPPM= 7.23999977111816
##$LOCNUC= <2H>
##$LOCPHAS= 302.5855
##$LOCSHFT= yes
##$LOCSW= 0
##$LTIME= 0.400000005960464
##$MASR= 4200
##$MULEXPNO= (0..15)
0 0 0 0 0 0 0 0 0 0 0 0 0 0 0 0
##$NBL= 1
##$NC= -6
##$NLOGCH= 1
##$NOVFLW= 0
##$NS= 16
##$NUC1= <1H>
##$NUC2= <off>
##$NUC3= <off>
##$NUC4= <off>
##$NUC5= <off>
##$NUC6= <off>
##$NUC7= <off>
##$NUC8= <off>
##$NUCLEUS= <off>
##$NUSLIST= <automatic>
##$NusAMOUNT= 25
##$NusFPNZ= no
##$NusJSP= 0
##$NusSEED= 54321
##$NusSPTYPE= 0
##$NusT2= 1
##$NusTD= 0
##$O1= 2400.42
##$O2= 2470.59601804267
##$O3= 2470.59601804267
##$O4= 2470.59601804267
##$O5= 2470.59601804267
##$O6= 2470.59601804267
##$O7= 2470.59601804267
##$O8= 2470.59601804267
##$OVERFLW= 0
##$P= (0..63)
5 15 30 0 0 19.8 30 60 20000 0 0 80000 80000 1000 0 0 1000 2500 100000
600 26 0 0 0 0 270 100000 15 1000 1000 0 0 20000 0 0 0 0 0 0 0 2000 0 0
0 300 0 80000 46600 10000 0 80000 0 0 0 0 0 0 0 0 0 0 0 0 0
##$PACOIL= (0..32)
2 3 1 0 0 0 0 0 0 0 0 0 0 0 0 0 0 0 0 0 0 0 0 0 0 0 0 0 0 0 0 0 0
##$PAPS= 2
##$PARMODE= 0
##$PCPD= (0..9)
100 90 100 100 100 100 100 100 100 100
##$PEXSEL= (0..9)
1 1 1 1 1 1 1 1 1 1
##$PHCOR= (0..31)
0 0 0 0 0 0 0 0 0 0 0 0 0 0 0 0 0 0 0 0 0 0 0 0 0 0 0 0 0 0 0 0
##$PHLIST= <>
##$PH_ref= 0
##$PL= (0..63)
120 120 120 120 120 120 120 120 120 120 120 120 120 120 120 120 120 120
120 120 120 120 120 120 120 120 120 120 120 120 120 120 120 120 120 120
120 120 120 120 120 120 120 120 120 120 120 120 120 120 120 120 120 120
120 120 120 120 120 120 120 120 120 120
##$PLSTEP= 0.1
##$PLSTRT= -6
##$PLW= (0..63)
0 10.692 0 0 0 0 0 0 0 9.6228e-05 2.673 0.14235 0 0 0 0 0 0 10.692 0.297
0 0 0 0 0 0 0 0.132 0 2.673 0 0 3.8491e-06 0 0 0 0 0 0 0 0 0 0 0 0 0 0
0 0 0 0 0 0 0 0 0 0 0 0 0 0 0 0 0
##$PLWMAX= (0..7)
100.8 0 0 0 0 0 0 0
##$PQPHASE= 0
##$PQSCALE= 0
##$PR= 1
##$PRECHAN= (0..32)
-1 2 -1 0 1 -1 -1 -1 -1 -1 -1 -1 -1 -1 -1 -1 -1 -1 -1 -1 -1 -1 -1 -1 -1
-1 -1 -1 -1 -1 -1 -1 -1
##$PROBHD= <Z108618_0671 (PA BBO 400S1 BBF-H-D-05 Z)>
##$PROBINPUTS= (0..15)
<19F-109Ag> <1H> <2H> <> <> <> <> <> <> <> <> <> <> <> <> <>
##$PULPROG= <zg30>
##$PW= 0
##$PYNM= <acqu.py>
##$ProjAngle= 0
##$QNP= 1
##$RECCHAN= (0..9)
0 2 0 0 0 0 0 0 0 0
##$RECPH= 0
##$RECPRE= (0..24)
-1 0 -1 -1 -1 -1 -1 -1 -1 -1 -1 -1 -1 -1 -1 -1 -1 -1 -1 -1 -1 -1 -1 -1
-1
##$RECPRFX= (0..32)
-1 -1 -1 -1 -1 -1 -1 -1 -1 -1 -1 -1 -1 -1 -1 -1 -1 -1 -1 -1 -1 -1 -1 -1
-1 -1 -1 -1 -1 -1 -1 -1 -1
##$RG= 181
##$RO= 0
##$RSEL= (0..24)
0 0 2 0 0 0 0 0 0 0 0 0 0 0 0 0 0 0 0 0 0 0 0 0 0
##$SAMPLEID= <>
##$SFO1= 400.07240042
##$SFO2= 400.072470596018
##$SFO3= 400.072470596018
##$SFO4= 400.072470596018
##$SFO5= 400.072470596018
##$SFO6= 400.072470596018
##$SFO7= 400.072470596018
##$SFO8= 400.072470596018
##$SOLVENT= <CDCl3>
##$SOLVOLD= <off>
##$SP= (0..63)
1 0 0 0 0 0 0 0 0 0 0 0 0 0 0 0 150 150 150 150 150 150 150 150 150 150
150 150 150 150 150 150 120 120 120 120 120 120 120 120 120 120 120 120
120 120 120 120 120 120 120 120 120 120 120 120 120 120 120 120 120 120
120 120
##$SPECTR= 0
##$SPINCNT= 0
##$SPNAM= (0..63)
<gauss> <Gaus1_270.1000> <Gaus1_180r.1000> <gauss> <gauss> <Sinc1.1000>
<Squa100.1000> <gauss> <Squa100.1000> <gauss> <Sinc1.1000> <Sinc1.1000>
<gauss> <gauss> <gauss> <gauss> <gauss> <gauss> <gauss> <Sinc1.1000> <Sinc1.1000>
<Sinc1.1000> <Sinc1.1000> <gauss> <gauss> <gauss> <gauss> <gauss> <gauss>
<Crp60,20,20.10> <Bip720,50,20.1> <gauss> <> <> <Rsnob.1000> <Gaus1_180r.1000>
<Gaus1_180r.1000> <> <> <> <Gaus1_180r.1000> <Squa100.1000> <> <> <> <>
<> <> <> <> <> <> <> <> <> <> <> <> <> <> <> <> <> <>
##$SPOAL= (0..63)
0.5 1 0.5 0.5 0.5 0.5 0.5 0.5 0.5 0.5 0.5 0.5 0.5 0.5 0.5 0.5 0.5 0.5 0.5
1 1 1 1 0.5 0.5 0.5 0.5 0.5 0.5 0.5 0.5 0.5 0.5 0.5 0.5 0.5 0.5 0.5 0.5
0.5 0.5 0.5 0.5 0.5 0.5 0.5 0.5 0.5 0.5 0.5 0.5 0.5 0.5 0.5 0.5 0.5 0.5
0.5 0.5 0.5 0.5 0.5 0.5 0.5
##$SPOFFS= (0..63)
0 0 0 0 0 0 0 0 0 0 0 0 0 0 0 0 0 0 0 0 0 0 0 0 0 0 0 0 0 0 0 0 0 0 0 0
0 0 0 0 0 0 0 0 0 0 0 0 0 0 0 0 0 0 0 0 0 0 0 0 0 0 0 0
##$SPPEX= (0..63)
0 0 0 0 0 0 0 0 0 0 0 0 0 0 0 0 0 0 0 0 0 0 0 0 0 0 0 0 0 0 0 0 0 0 0 0
0 0 0 0 0 0 0 0 0 0 0 0 0 0 0 0 0 0 0 0 0 0 0 0 0 0 0 0
##$SPW= (0..63)
0 1.9971e-05 8.876e-06 0 0 0.0069368 9.6228e-05 0 2.4057e-07 0 0.0069368
0.0069368 0 0 0 0 0 0 0 1.416841e-05 2.202434e-05 1.028381e-05 5.545972e-05
0 0 0 0 0 0 0.091891 1.7107 0 0 0 9.7037e-05 8.876e-06 0.00056806 0 0 0
8.876e-06 2.4057e-07 0 0 0 0 0 0 0 0 0 0 0 0 0 0 0 0 0 0 0 0 0 0
##$SUBNAM= (0..9)
<""> <""> <""> <""> <""> <""> <""> <""> <""> <"">
##$SW= 20.5554899610496
##$SWIBOX= (0..32)
0 0 3 0 0 0 0 0 0 0 0 0 0 0 0 0 0 0 0 0 0 0 0 0 0 0 0 0 0 0 0 0 0
##$SW_h= 8223.68421052631
##$SWfinal= 0
##$SigLockShift= 0
##$TD= 65536
##$TD0= 1
##$TD_INDIRECT= (0..7)
0 0 0 0 0 0 0 0
##$TDav= 1
##$TE= 298.0009
##$TE1= 298.0009
##$TE2= 0
##$TE3= 0
##$TE4= 0
##$TEG= 300
##$TE_MAGNET= 0
##$TE_PIDX= 1
##$TE_RAW= 300
##$TE_STAB= (0..9)
2 2 0 0 0 0 0 0 0 0
##$TOTROT= (0..63)
0 0 0 0 0 0 0 0 0 0 0 0 0 0 0 0 0 0 0 0 0 0 0 0 0 0 0 0 0 0 0 0 0 0 0 0
0 0 0 0 0 0 0 0 0 0 0 0 0 0 0 0 0 0 0 0 0 0 0 0 0 0 0 0
##$TUBE_TYPE= <>
##$USERA1= <user>
##$USERA10= <>
##$USERA2= <user>
##$USERA3= <user>
##$USERA4= <user>
##$USERA5= <user>
##$USERA6= <>
##$USERA7= <>
##$USERA8= <>
##$USERA9= <>
##$UUID= <>
##$V9= 5
##$VALIDCODE= -1
##$VALIST= <valist>
##$VCLIST= <CCCCCCCCCCCCCCC>
##$VDLIST= <DDDDDDDDDDDDDDD>
##$VPLIST= <PPPPPPPPPPPPPPP>
##$VTLIST= <TTTTTTTTTTTTTTT>
##$WAVEMAKER= (0..7)
<> <> <> <> <> <> <> <>
##$WBST= 1024
##$WBSW= (0..7)
4 10 10 10 10 10 10 10
##$XL= 0
##$YL= 0
##$YMAX_a= 3411036
##$YMIN_a= -4321206
##$ZGOPTNS= <>
##$scaledByNS= no
##$scaledByRG= no
##$shimCoilTempK= 300
##$ABSF1= 16.27781
##$ABSF2= -4.277803
##$ABSG= 5
##$ABSL= 3
##$ALPHA= 0
##$AQORDER= 0
##$ASSFAC= 0
##$ASSFACI= 0
##$ASSFACX= 0
##$ASSWID= 0
##$AUNMP= <proc_1d>
##$AXLEFT= 0
##$AXNAME= <>
##$AXNUC= <1H>
##$AXRIGHT= 0
##$AXTYPE= 0
##$AXUNIT= <>
##$AZFE= 0.1
##$AZFW= 0.1
##$BCFW= 0
##$BC_mod= 0
##$BYTORDP= 0
##$COROFFS= 0
##$CY= 15
##$DATMOD= 1
##$DC= 0
##$DFILT= <>
##$DTYPP= 0
##$ERETIC= no
##$F1P= 0
##$F2P= 0
##$FCOR= 1
##$FTSIZE= 32768
##$FT_mod= 6
##$GAMMA= 0
##$GB= 0
##$INTBC= 1
##$INTSCL= 1
##$ISEN= 128
##$LB= 0.3
##$LEV0= 0
##$LPBIN= 0
##$MAXI= 10000
##$MC2= 0
##$MEAN= 0
##$ME_mod= 0
##$MI= 0
##$MddCEXP= no
##$MddCT_SP= no
##$MddF180= no
##$MddLAMBDA= 0
##$MddMEMORY= 0
##$MddMERGE= 0
##$MddNCOMP= 0
##$MddNITER= 0
##$MddNOISE= 0
##$MddPHASE= 0
##$MddSEED= 0
##$MddSRSIZE= 0
##$Mdd_CsALG= 0
##$Mdd_CsLAMBDA= 0
##$Mdd_CsNITER= 0
##$Mdd_CsNORM= 0
##$Mdd_CsVE= no
##$Mdd_CsZF= 0
##$Mdd_LrLAMBDA= 0
##$Mdd_LrNITER= 0
##$Mdd_LrRANK= 0
##$Mdd_LrZF= 0
##$Mdd_mod= 0
##$NCOEF= 0
##$NC_proc= -4
##$NLEV= 6
##$NOISF1= 0
##$NOISF2= 0
##$NSP= 0
##$NTH_PI= 0
##$NZP= 0
##$OFFSET= 16.27781
##$PC= 1
##$PHC0= 237.7014
##$PHC1= -34.08891
##$PH_mod= 1
##$PKNL= yes
##$PPARMOD= 0
##$PPDIAG= 0
##$PPIPTYP= 0
##$PPMPNUM= 2147483647
##$PPRESOL= 1
##$PSCAL= 4
##$PSIGN= 0
##$PYNMP= <proc.py>
##$RDF1= 0
##$RDF2= 0
##$RDFWHM= 0
##$RDINT= 0
##$RDPOS= 0
##$REVERSE= no
##$SF= 400.07
##$SI= 32768
##$SIGF1= 0
##$SIGF2= 0
##$SINO= 400
##$SIOLD= 32768
##$SPECTYP= <>
##$SREF_mod= 1
##$SREGLST= <1H.CDCl3>
##$SSB= 0
##$STSI= 32768
##$STSR= 0
##$SW_p= 8223.68421052633
##$SYMM= 0
##$S_DEV= 0
##$TDeff= 65536
##$TDoff= 0
##$TI= <>
##$TILT= no
##$TM1= 0
##$TM2= 0
##$TOPLEV= 0
##$USERP1= <user>
##$USERP10= <>
##$USERP2= <user>
##$USERP3= <user>
##$USERP4= <user>
##$USERP5= <user>
##$USERP6= <>
##$USERP7= <>
##$USERP8= <>
##$USERP9= <>
##$WDW= 1
##$XDIM= 32768
##$YMAX_p= 305208739
##$YMIN_p= -69900
##$CURPLOT= <Auto HP LaserJet 4050 N PS on NMRSERV1>
##$CURPRIN= <$HP LaserJet 4250 PCL 6>
##$DFORMAT= <normdp>
##$LAYOUT= <+/1D_H.xwp>
##$LFORMAT= <normlp>
##$PFORMAT= <normpl>
$$ End of Bruker specific parameters
$$ ---------------------------------
##XUNITS= HZ
##YUNITS= ARBITRARY UNITS
##XFACTOR= 0.250966925370066
##YFACTOR= 1
##DELTAX= -0.250966925370066
##NPOINTS= 32768
##FIRSTX= 8223.43324360096
##FIRSTY= 6434
##LASTX= 0
##MAXY= 305208739
##MINY= -69900
##XYDATA= (X++(Y..Y))
32767F434O084J0791n878C053J249m83G69J298b728j72D054J1902O645K67Q139
32752C1007K068j3509H853L815J795o701J822Q141F564J0899k09E386d484F86
32737A1154n386N572m280J4431l881k311m474k036k658J0851L060k737e51I388
32722A8362F101J0622G715NJ955R339j635a3003N211j673p790c3n293j4260g403
32706f037H419K744O037E293j731O580c298A6100J844n384J0648J780r62A1134
32691a864A5915N435H248k70A688g921I14J2014n101Q555J7738L88E677N502E200
32675A689J0093D082c519g85A923K6200n131o914j914R12n70F850J2939j795K075
32660B0069m698L701R825p111j694m540K18J5149p188p112R448C330J8221K326
32646B3877d32D854J1794j57I82R475k711Q852o649j495R588K03N904O69j0407
32631A4411g013l876j265c355p027B901N412J437j22b574A7438l960k257P354
32617A8575J559N306J322J770A3629o039L428f071J383m343c004K6C127O872J3822
32602B3821N40q732F898J353p54h9F782J0935J4010p767n119O631D061c612J355
32587b257n217H512M689j923K747J1605n858n603e01j1149a949F022L254B436
32572c478o708p39H24a5165f69B769M675J6805K726J1819j2666D071b5441N457
32558a9984R942O93c836F363F99O996b568E045P329P225O847A0381k937K892f26
32542a231j6835H686j766K442L261M007J5965r182P133J1737j3473I653k782q79
32528E992a5000L710c287L38l097j3801H9K0845m830k349R43K315q172k042J277
32513H076g764I507J0571M85b198I021C606L544a585j3730K335B3J2764L126C845
32497A1824K774m209J6358Q838q515J5870p496j2064o174J243f224J467A7450
32483A4448B929J431Q010E911R270F349e492F721J1307l644l354j431j683M807
32469A2723J155L648K43D019d014C862P309H70M634a071B127M598k453J3059l590
32454A3741K81j201K334b16A5877G634g789b628G440c22A4529J0046m788r831
32440I956B793O626A579J7020m939l064e864b189a04o033f5H610L309O086J734
32425A9739Q970O515C315M814O953k888K533K483A966R61J2804R545n815c714
32410a0321C012N075C425J1510m151C522A532J507g413A0565L483F382M416J4281
32396B5079A471g411A7040b670k391A0347a884j461A3371E511J2806P859C799
32382G921K0756p809M927p823j396o682e585B117c596J554A0454n223a0623J18
32368a0505k840O293A1008O847J913M129P06J6555r770A4044L078J2251j1900
32355A7473l690L750m018d377q829I139K4496A1759l180C887M704A085e992b40
32340A0932P975H066r11k654a1084j189a347C168a1923D708J1571J4198K675l429
32326B9723j732C327a6095O909E053N768q25m352R927c511LA0212K3597R646q760
32311C4695j5333A747N04J7743N82a216I923J0126B122c025A144Q010c554j1312
32297a4866O620C766j727i24A4372m766O597D401b813r488A4410J2370E916R305
32283A5221I56N519P148l368j296A035B79J9448p870N0E019P672d183b43F136
32267A7605H050J3928G830J5562O6p782a5827g221b195R89G073r49J0233H012
32252h415K01A338R52K325K1067I837L906F836J588J1903p177o138k05K2363L22
32237B9492h539k3378g966c536A2663R513a2056b344A2543j577j184E98R976J0736
32223B1310F740N63j813J7222n675E537J0803d236a621n552j0087G3f38A5989
32208A8915J731a987A9725O585E162L724C007D88J948R165a351A226L579Q799
32194A3604a1279E446L9937k781p757l398j1531q652a328L57m657A87e46A3880
32179A2346i767d629B1913n464O246l569J1325k403k26q631r383m012a4318A44
32164E192J0857k020B958J318J740O000J2516R826F489d841I793J2155A0190g273
32149d736j3958O906D438M156k105e274K70b090l240j6274J880p879j396M648
32135b4351J270Q670G965m23i337A3746a7308O898K074R83m183m09i61A4866R229
32120B4095m764J1170A2920B036i85q743F94K4609M565r703j169F664I38P07a6479
32104a2747A0460g77j0154D021M553R037J6d663k185A6913K240r95R782A1481
32089A4970K0014I053e173C197K7892M73F039a0376j0345c372j3813c275A5515
32075I758J043e280p115h8k485h49B3162K968j2106R157j428r713N463q467R931
32060A8967j660D826J0938N432B292b68B2405l208G20J1296K2582r494D063i820
32045b375f72A9521q492b14k3542j88O490O267A039d656I224J0041M443j0404
32031A3304B973Q319C812i641b723H964K5842j1275q590J7156J725I122P802H119
32016A2054M07O577M762J569j2343o269P017o84A741a743F3a177j5633E876J2690
32001A8566j50J2695q032j0600k097J3452C565K81g129b785F977O438j110J7617
31987B9922j1136F828G28J909N595a6616I856k10l349f745j6233k995a1259e472
31972a2368g91o924H599C296a7441I439A87P595g317k0062J2908D466O829O29
31958A1924i217A5076J4515L904o783A0245M517E033a4914p173P159b714D458
31944A0690f038q908L104I998N909o330e52H93J3513m314m824J0299P803l148
31930B0222R429j0582k197D732J459Q791J2102J5237A1821L018O099o7g719A0698
31915G584c483H98e238n69D106a674q670m833k574j959B355M180n86L0636j2411
31900B4174N612M3j920F563a0864A2025M807n307P633a808n843C4099o834A291
31885G556q09J2326L555j1201A908g232A827J3937Q060D579g601L99H631J6712
31871B5343N855o454d782p023J290K590A1272n184a2446A0164K5296I631N956
31858A5587n224k882K061a579C227M209J1211G116c094F743K038b2158P394A0070
31843A3985J0975O936J902k940B987f136A2760J923D020c006j2718e236a492j7269
31829a8761J683e488J865G00a1294B703M64J9227C216f036B894K1410n071J323
31815B0556o389o814A704J336J5671n593b013G413k85R283J442J6189R04j2001
31801B2945K909n299n206D448a4401j2445c986G29L988b890q064j9813g952J834
31787f118j2151B617L662b666F695k175A449J1393D673j955O026D308Q819a2052
31772h113P19l120c060J058r322C439J5938G959B69M193e27j668A4975b340H686
31756A5099j077B176b11l227F459h71n498A0945M394K382a2941b737E564Q81J4888
31741B1333J123j0708M409N736j0834i663E565O012c075o107K307m254k769b654
31726H090A918R008m069f495B3631m198C980j256f59A3570o680L891R524f78A7330
31710H928K943i771J912B563h588b915k223A4939R7f24E400a0865M506j930a153
31694A2184a9009h011A3411o320a385j058n744F181d207D037J1966m980J0928
31681B1951q121f285k3661c16A2157j490k980J702l651d711A9622G958B892M191
31667G083f488E670B439b239G110L509R746n356j546j087E426P92B515J9178d510
31651b152A9884r673a6601m582a0542n573l705i738L171F247K076J8042j2390
31638A3975D730J6122I574Q73m069H15J0123L722m490N406n4R777j1318C136a2894
31622A1554K0915j4929f841n321A3811k142k244C834h024l297B8603r653l888
31609A5062m961a821n18F939J4380k652o629O751p897g49j2571j2904M062c003
31594F764J1116D181j825O504K3173A4154k524B937L27a145E425A292a4648A6122
31579A3905n777C535h010m779a491A7436p051c1274a5189H406K2985F113a144
31565f72H124a808D688A168i83@f626j1761Q654F340J0160a657j0746c509q573
31550a2082N406b014j3813c819h90j1743J187m865e594n934j0282M307J073f298
31535A1544i393B098J4877q259L671j903K568g780l907b701o150j0696l012H234
31520h622j6572h298o112p683j1838a3472N950C965n44j297g144q260n833P904
31506a3333m289m883j2880J7475M651I51a1759E269j181R187a581f2C803E42J0765
31491A1307M221Q724D960c811j1783J26a181n850I179J4923G610J5119j1161J3218
31477B4786r074G041L937a0351A2457a2399C176r76b666j002o732l998m380h258
31462a7419p566i824A8593N378j1372F48Q82J263K428h678c695g45r302F990J5296
31447B2286m065e429j5268a04j059l4700J7539A1506J1598o620a385J72A1002
31433I338D245b577C04J0496b605l552E102Q537L796e465J061a841A9929J3309
31419C3238m912j2151A613J0226m386K5i275J776A8375J2705j4499D637a5542
31405b841j0850G190j317C99J8922n448A327K744I24e062F640R886b4134Q953
31391a5181c359k415l770K293k2930R288e005e66p519n431O649l332B0504I4h784
31375G371r22b2149a0878o093A0842o65i552A3469R667j1490l084l914N910D289
31360A0901n036a326j0933j8159J2224B257J1206b419A867Q076C75N258B235J9976
31346B2211K503p348a1395j6455a2659n320j874c213A4539m708K061B792M08a0391
31331i752K918A0269D630a1926j2911h593G794j611M152P334n829B316f94q416
31317i110A8435J0134C661a0999C921A882J2298J0549e956C728a716l998m330
31304a0044J151K899K467J484A3145k137i603j1844O824J042G876e25C1421j2246
31290A9175A844f40j6998L454A2567K987J0046L457m057p790p764l221J7015q501
31276A4739D931J1611J2320j145J1506n520J7A3656K747B217e205A0780d066C669
31261A0333a5415K59F94h038N22k0727J2572a555B0133D589a2727B684L031r84
31247D731J5444J1096A4673f1r47k4806a1704c75C535e900j3068o136P974L876
31233a3254J391j1229J1167N698L106C414m26Q418Q941o835f813q371c535n917
31219i452Q63n852o271L871f797j1155j255G835O355k042b742C97N568c726k9473
31204c3199R839F444M801P662p404N907P120j795a0838M601j1502O759B524J4004
31190A6528J5820A4735b632p235K388D838M078B182J2900C941O197P651c112j734
31176d846j5335Q868L796F824a2163k467B1540J799f31o527n408L341a637B0365
31161A6779d548j6196P226a970m549j1550e851B3245l659C792Q146K1648q520
31148B5066l594A0438m134O959b005B3779d580r881B140g758K652A6169Q248A1507
31133b85A4168D969R288n47F151O129m779k619J4257Q52n747j231A485a2241l648
31118a5889k326F438Q013c354l771k27E95O293d34j3061C011Q824J5694n036r188
31103A3305b603N72F10O24J289a3014q510A0138D666e044A4245B066J611o97c05
31087A2446J578D969d302k291B0272j019r311b735B522f0A0889g852K626D098
31072D750h611m183j902d13j983k771A8773o750j20e406A8283a356I517R024F453
31056a1388J312B830J3484o685J3289j0028k447L430j179K062j627c446G68e080
31041a6415p727a1448D750R401G075p59b839m964L191A732J628M028b751P71Q54
31026a126n097j0561H191e228j4640Q098M851B627Q618K82a379A8610m714j787
31012A2109n344k9J618J7259k982G366J5045A077a2866H31A55J1990k881R91g726
30996c578q196o869C678J6937C087a0236A2291n139la685A1208P353c478k8159
30982c1637O752L799C546N227B503a7680L350O306j0400L300E921d821a921q336
30968a0257j2092R27J0453I16J2354F518A220O265j775B517a0759K532I237a83
30953a1825k454l397b254H506C243P859K619D870a2894c767m805n108J322c521
30938I209J3923l267L214J822j243I618l665k494P526R66g05n926q973j2575r06
30923b9085O372M562E53g887A6264O345l927m77A936J9518j0526k29A164K198
30909C362K877L354C36e381k2023j810e910k831m419a344C944c894H637N920a5032
30893b6427J1190C95K802c219o354j6264e022C79h930m494B865h655A0188L944
30879A4132a534n815p231b698A1440R61i746J359j0991h212C72K1581q204F030
30864B156d234o546E113J453e795C956O246a620r388K574c348m188j2177C686
30849c134k1746L494L1H377i65A9727l175a1611A6075K2864l648j0007A0876L242
30835A4118A923J519L995K081N302q4B210f859m286C730N000K064a2227r795e987
30819F135B095K739K210e3k6882q351J3103k854N073f010o922B745a1876E325
30804B065a5383O468I95J7947a6528j198g04l346J196l858r650q917K641M915
30790a7723a715A1503D431P656n450P136n065O064j715B858O128C874c1014a4656
30775b021C388J406J198e22D830J0075B208P670c841k940A7295P41F978e14m437
30760d951m294o098f244j0649N582a997E317M870d908A0453N2K1854A4040J623
30746A5663O05f85m61m141q470b399C130L767a847A7197G647a714n542j7136d116
30730C423a9620n773P124P968b467q328J985q106p619N572A270b206o195A1819
30715C653J3843g508a141A2756J711P626r072C119M73e28A4235Q318P048A496
30700E626J5550A337a3236L369q412h473A5551a2242j4829a1159k611r976J0210
[...]
4320a0498L846G8J5988l420j192m582K8089j3331I943Q191j942p02J987b875o328
4305i203b296B9090H602J654Q823F722e586j0510H066C722J837B480P642c114
4290A649M351a3609M698A858b0114j303A992i122C500L983a2330j0724M626L646
4276a4782K806A2192c377A811J5064J899F754h983c793B2080J7120L980r782j4586
4262A8812n913a010j0358j73D872f867o521H995J8435K932m685n898N80m590n214
4247A0555F84J1525P824e54j2256d764C177J079N919N802c565R24C519K0348J884
4232B5751l143F347a0513m841j2167Q678d641l016j621D61J3070g16j536A8729
4217A4032C375g03B0344k900C420d633A3572J5075l725l195I680k217N511Q682
4203B1656N250r486M89q669J1626G569k918j575a1677D852P448A234a1395r739
4189b1134i575J125b612I917K700L818J954j415E684g154g19A7346D157A445a8227
4173F14b126q667m43b822J49B792c371o628B887a8976M21Q952G662A954a8771
4157g278A0232J3564H76a615C743a508E511Q083m37P641d187A851i257M270p44
4142e731I099l116O859k758B216a5531A4134l784q89j659a044j620E446J0970
4128A6416k085a552P02F060N736Q942G377R270J1011e966r447a798A688L104R423
4113A4215k673f851G253J3184R316k491B053J2046R448k564Q508K705j1333b568
4098G829L845L363C975j968c638n947r013e47A148a4899d461q54J605J139A0199
4082B3173F638i478A5300K232k520b64m10F516N375K596E672c644E238K0430l587
4067B2081i259L144K457A198h137l248A898M909J1820H303A815a7221K506M191
4053a0524D535B116L827i225K161A5820d110E036e347A0437J3246p525B902J0025
4039A2927M868N031I393H84i129E631J593i960c938k721j1292a216B978K9711
4025C2689o156A2707m289d268b87A115J9066g391Q7l236B280K4484L976A4311
4010d884j3360l344N374a558A7285l208c059j0995c299A7175J726L135H348O199
3996A4547J6942q485j1019J753l785J1148H154k83h129B112a640J30A0646K633
3982A3279r08l023e294a665j1790D31K1702C572f422j611q392B658g272I096J4611
3967B3707o233H214P564A86P279J042A312K1375J1574j6997k972l156a2080l625
3953a5705P096j2506d794A553f627e75C2575E258a4602a556A6902q128k267j005
3939E502J2038j012o004h06j651R39o316l09q092j68P184G445B806a1966H72h389
3922b0551l638a999j2140Q39M148l165a877B358a0703b866H330j111C420f246
3907H32e806G399k865c889l968l366b387G253J6114A0624m298L687D040P045D803
3891G881O65J510a6289d998b287j0711P06G311P148o480M428L804O242o681f126
3875A7848M756B451Q248L836M139L999j993K693d486j4419O204M267d033q141
3861a2174a900l346j2736h293c910j477H872f891n685B457a8432j503d780B7831
3846B7822A0209D764d370j1564d074a585k3816b144R62j800j9303d531r843G942
3831A7654k924N360p664B246J1902i868H960a126E831J0454k002o035b858J53
3817b705A0072l682P709o527e379n467n355P400B6459O124G752B831a182C153
3802A7345Q732J6272m923A4107n949B361d02l702A4072m271Q651q933A42a657
3787a5535B223l39c779a770I128m64j87k764h455l316A2903k03m954J603r95R84
3771I338a3822f171G840J7663j218j1188F126a2483k613o765L067k073P907e852
3756A4735o347J8514M991A4635f879B793Q577P4a901D64J3164D177O825a6307
3741b1239a217q117A6849A525J510a1460p472k032M333B6128o521J520J732Q210
3727C1069I403C662J6339R824B394f539j4555K398d93C942c84k868A1169O235
3713A7404o050l342O942J739q213J0338b793j4588O156d926F659K384c965o634
3699a0599m203A4607Q622j409j0322m427k540J5993n036p303b636a021A0838g958
3684e19D910N604b348q569e004A6293p49o978r49J2703k563P596J2999F381N545
3669A1926L524J292c892j0568B438N978G17d533b066H1J391M101P251J1665I298
3653I516Q989h060A0533J605c916A5895f408q490A7659j921C575a441j1247k258
3639a4946E246i913c353B645i501j0962j5412J1345Q360m352i489A0480J7407
3626B7887G402p51j863i396j1304e588I70c337G844B265d795F355N065F33O51
3611A284Q905J928C478a7350Q457J771j8530O449i308p263M193l944j395f393
3596b197j7000d694E324h859F236a383e21A4485J384j565L013r70R07Q231J4291
3581C9776l40j2876m01p096P367F657L345c459q876d342n177l033b478p482J302
3566h658A2551R82E827a3459c589A0769O833Q915e858K375A7295R910B634b517
3551e942o177p678R329q47B728L206a641m88p26A7380o99j847E904J563j408G98
3534A420f25n800A7176o318C833J97a143C894Q134e899q54F274f866n555E204
3518f184K039n553E403J4208e583A551O443c052D379J4109N859J0126A521a1041
3503H416O597ck275A419O416N669J1460r965J1077J248I821J029a0846k7119J8617
3488a9348h834E298J6648F94M719K843B817O897F17P99i184l194n500N199A8954
3472A7977D38R210J1789p813f427a196G967l553f406E009P440j236e929P42D490
3456G696J3074N184r330P26j708G327i23m921o640K804M177A123d256E833O504
3441A2337K8228m192j348A3222J0366L963j1505J041H491r20l558i077M519A4508
3426i857a667K65I96d725q135G82L0963A1200M510k498b12E180J2114l809J393
3411A4878k918m624k064P912a37A120a2756N648B8117j3593b5323F118C6a0189
3396G814J269h037k1251q845L538a6110I359M489D604K78a9747j1996J5470B418
3381A0160k736b376C058a1935j818p546p805N334M841e791o141L036O05H583j640
3366F943J20m27g9aA9878j26D792O15J2907E377a983A3270R93b90C032a2387M947
3349g440E733o7R069K42p451p71m81Q266l295O163p028a0512N200O91j9664a0249
3332a7396j873E319J7194q747o233Q662E77J0343N345M97p217J4422n822q739
3318I406a0988A138L608a213A3484O671k848l379o951a2261l679A1125Q841J3680
3304C3646J217F728K0765G727a2172I119k34M671m087O089K318j423J4399P986
3290C8838j8638J210m184l943n801B301J9250E565b175A3512m026A909J7373P873
3276B7155J4249A306M407A574J0073J0640K3951B1185p294b150j8166a0066D855
3262B2386J4913A3615o370B044a1501c903O32A4940g409l680K874m113d574G524
3247d79D785P491L836R75P800k348J3672o70j1912D578h809G671J7396P448M698
3232C7213E563f151a890A1265M634E582l13k99a9897C184O225i912A318Q26L660
3217E804N107c994m678C14h985I035g336L382R86J29G947J7904J3047j7243o212
3202A5443j683J6055N68A523a1154H321A813N915J920M992F561N918a7298J442
3188a5856p333J1173A6335C030M919c375E92a0089C742b695k0250Q863A198b202
3173f586J079B1606l420i54A960K2594a0757o135C618A569b155G472P834J6161
3159C1467j2601J0754j3436G614C404O945J5161K3483B3546e182K116I666m374
3146E292l89N71O951r5R740j798o699c083F350J1784l740m658m620N461D632J2408
3130A7040G977b7851N539i839n273e385l101B21a764k1183J0578j0389c379D046
3115g205j5911J0842n415K093e629n801A5481K623k640D522j773d295I987D252
3100A34c782i50H694J6004o766D065a138A3777K1274P902j8306G542J8328m453
3086B1417q555D63M762R099j72R825J7951q309A0397B675j226Q920f49B536J191
3071C727P819b459n481j198I36d041B539a427j093E097g458I09J894N414J5325
3056B3542J3163m32M207A8540A284h434A0509Q306m238Q81P771m012C458J6888
3042B0346r300O256L1634A8140C475P249J5572l567P20P187L174M164j2293o597
3028A9084k987i625H85J7335o323Q443F058J1901K442r487k957K941b720j1930
3014a4650E107i415J673G899b933A5968P931l860D756J6764M620O259O938A9456
2999A1248J0701F353a6605F140N745J021N196G438J5452r722b971j196j3486Q73
2985a6780h202h72B013b368B018K327A005N360N937K2913A5164m003L665C099
2970B1081j266J7834j3734G727J6967H803e06B520O696a1159D216e388l847F163
2955G383A325N293L982k312l610P337c372k160R71I381j344J3140p65n615B210
2939A8186P865o23H630c538E846R241J2302j0111e595F962a0246k1530A812K6219
2925B8031o090G143d339j2113h11I76K3985G721J4685q819h150A9096n25P634
2911B6205F115J5295n378J8257A4746o243a836A547M245J020l213Q257n701J5665
2897B1820J5306o377j17j0275K0F292B44J9768K959I180M05k36O150O14J1648
2882B7761G489L567O098J1644O21B476b5963b355A3421k417R511B270e941J017
2868d924a198H838P335P796k783j264Q479j1602P504L389A3088C792a767C0591
2853B8295k756C472J6818l741A1O935M151k39E218J9459P59A1366n539j189R479
2838A4117f614L274j3739a358E014I07e264A3027j354C035N519R377l409c981
2823A9642Q792j2616L646Q549j1736k161c7C132P372m248c533E350e695H60K201
2808C061R326J3354I517J2524k692B949J4319m516K086L125o482l713c229G133
2793a238B008g398a811H18a037H107J6683P2K739r978c726j7718K705Q151A4494
2777A5062n012M990n014m774N133J933k900i141j0961R927A6533g444l755q368
2763a9567M035G277M079R353D394j010L617J339d590j5033A0080O137B902J697
2749D599A522J3236n724M668J1814o236q60b30A1203B761O958A713c250A6284
2734A3476k655n289d589A4827j814P679j369K139j0586L411F085b841nA2635k655
2719I980J2429M080i282H144J4621J2127A3923J4536J5126K378j6510p709Q759
2706C0503L73e714j1382E481K6069D871M344A596Q143J8889A4212Q288D926O6
2692D992N369R089o509J420J262Q102m141K988g677A0921Q712m096D943K016Q318
2677A5277e774K433B90g203A8100j596n826Q82d638j1503P732j2455m032f855
2662a3367k05J130o300B3345H393c982o4A8642m37r17J4369q388j60F387k209
2647D178J0159J1724J789E585B035i392p106F600P399l752J7055A2843I75d040
2632A3456J4709R904A6506n160K157F57R045P547c649j9056a1332B108J5606j869
2618A5845c663j23n48E242A48i12C892c005H337l7B87b547B1175R577Q9j277M215
2601C3779p83O084k316q66A0908J2528j0144f011B0402r35L900P17J538L418l783
2586B5257j0085E396O201R117J2104K887J7759j4014k607q05q217J680M229F42
2571d059k917j2578O450ak790A3329J6651j0116m043K111K0122j1797K12E863
2556a80A3156J0401l915I755a8621J112E6J5104j103Q903J8115n283j0540j967
2542B3285J1341G015c163m640K969D925P74L132h355A7579P796L312D899a679
2527F822J7309J2402Q691j6975j0609q342G84J2385K4137B208J223M027J6833
2514B4291F973K0333q403g57B5987P738l661P860r190r94j976Q957j3444p858
2500A3419k608J0454q374c503b76E675N723J1854q899o594J2501O734H924a1761
2485a6890f721o683m239J468B6941p407p779J2950A0481D564J6048J0715j3386
2472A7941D721a4931D176g128j1273A404i869m293M068j1088L157c733H219c451
2457A1785K139J3233n00J3361j5326a767j2728j3468i520J899A1061k736O55e945
2442a4857L342M539j603A0286J9593j1375P916M764j540A2254n384j421a909k1607
2428b3516g063A5909N604A0593A41a6681f180F065J9241A1813N494L919L851r037
2414A6040n833a958j8342e897A2645J3824A0267l442j248K351Q093K174E532K167
2400G699j708J4617I352a1027r288P604A111L582J9746k172B42J4572a1333a227
2385D351a0369K286B752B94J9588J932P11l794m565k631k991h92E125h854l560
2370a2414l872j139E825N537J695E404J2200J4308P839A1387E352J915j662P823
2356A3428J7444j0981k016k759L067D441K3903G063j931i36k448F894J098j95
2342G797J291K2164j3930F482j396c711a836F06d864A769J7015L185m774B212
2327a741G399e212G295P873J2012k252a2878M637p517L030L090q36k970M472A060
2311A4606l446A956R428O501A644K125J2237D402I00g995j8370a2269F327K94
2297F621h04E762J8816l025G595J2930Q252F750f751j4376K528F652J1864L864
2283B2380m096K329m907L030K1717j2105j0566D166a464A1531L222C251J0460
2270A3711j373a987k85k898A1660L388O59b400m379Q25r96L305j3560m930A525
2254E530B609a6215l838D974A265J483L312L336J3816Q67H346a54D37a7650b336
2238a0395K418o655J704q172Q931n686K28q425L071k709r166a4420B1095R585
2224C0680o865c476j3669e653K790B0831O266r376b137A246O116a0938n598N004
2210a1532p451p97l934h558A2583J1975G269d508A4689F338P984k362k781J113
2196A0292c557p553r012j420J175A439a920F979O199g59A6722a062m886a633A351
2180g95B4210R952I982C147M199d635A3055O443A554b588F457R596Q53o764O536
2165A6678J3935r872I911O080k225L431O98m256c342A7960l298m22J4494M843
2151C3577A4814a3377K499k157N808n759G31L564K27b410q582n208j1562J0093
2137a7669L634K432D8M010A466O221J9531H276b193j5223I586K684F001a4846
2122b2527j3725J3880f909j1855f582L10K154n301l461D762j467J3308F349L208
2108I557J7009G396B80f345C336f830n031G068N529J056D94a7280a246F047i759
2092b752j8680i861C635c132A2448L411N956A672h420M88A535a4762A413J4147
2078A5560J6155R08C445a017j9715j797c543k241A728K4725E518C28J656K526
2064D510a3873K251N677B50g898a99A7152m169C075N913Q386G836J234l86a6969
2048F094J7018N362n950o298m051M692R179j1531C020O978K811d45A399O669j245
2033F823g032A202K352f546G081J2592L733a087B054a441l628D55b309o372c11
2017C12O632e009C641J9461p271e588j0541f586L023k832q904O438b609q856A4364
2001A3968J930K06o138m929f831C866M418j879J6770J9243p975j4841r718K062
1987A1946J2858q414n048C956a0779A4530M46g106k692k671N420l373c054j0213
1973a3267G10b260E535j774E62c743m621K274G99a246B2239A0576d029C841I53
1957B6321l721G701n27Q293B679Q973m770K723M622F641B450a3994m520A892K718
1942D610J1885C529P772B831h586k803P61j157k110N285r847N773b24A2662n140
1927G522a907I636l083a1609E443f351G462q91a800B1412k836n259m623k602B256
1911f4m839B301M345R926p667a406A9311O535A0762C215O49b422A0869B79L514
1896C793N700i705I697B599K710i565j9023J3308A3941R173p835P574j0975E901
1881A4963C069Q75J5444q019J1474n577d15p513A7464f961b592j1476E834K505
1867H339M528L716E710a3675r300a392o252m571k068e475B909K0101n574D234
1852I694B600c85A5574c141q980L30d481n385F616K688R9k545H60g850A837O044
1836G881l078d363G043M904D576a121j0752G468L600K2376L66q117p746d392j4246
1821a8638p042N821e163C165a42j6848b981A0809O030j827D645i80q422j2054
1807b1456a0235K010E268g157a859k105B282K0076k414p867R589G249k86a7883
1792e801E493B339a0913k469m439o38e224I721f583A731a9857q656A610L056J709
1777F375f721K743A5703p057a1709m520k837Q082B143J5401n512N521o661K949
1763A3841i030n48r883j9664l291f650A1228g804K891C25L293c401I041b895I708
1747F107J841c279E359a789j3124d290j5440K112e806Q10j387k944j5341r406
1733c4074Q132h100A0472O359k841O534N349m680A0440D500d540l659m391m136
1719a6726B485J2810n630j87R91k466O363b355C3c206o897M236q905k622N486
1704a1908K666a84p710n667p03d95E254J194A095J0853J1828j601k441Q459b141
1688A3084O57d524A4718K0012j0020h717j3092B171J1721m318b773m035m377A8080
1673A8483Q12b90k18B861a0456a063A196K3229P459j0856J825H549l262F77J1800
1658A2477J052a297E536M161a9135o704K314Q498a268H947j455a1738b224B4133
1643c239k4606J0480M971Q80j9615J0423O865K676e294A5504m634J2584a1228
1629a1715k438m324a263D748J5661o340h397j480G73c772j6024R886M70B245b300
1613A0599M734J769J0631q413D014O098A605a619j7728D149b687A6862p394J6719
1599B6187j898l164r62H089C218a7649g50E933c223C952P395J0854G84b734j2218
1584a4952j4534R813D077J2169Q1G471a0274A109a4058G30b825A527f504E379
1569c7D326c044m261j7524k646J0718e701p777e923j474j7513O989C537N192M403
1554A3132l118J4437a0050k1018J1311j5087l474i709q991K44R013k682n526E506
1539C542R13J5842H98K214b601G333L995M044J3359j2973k596A17N900b3938i918
1523D963P769a1390k284b060D875f624H648F28J4575p457J2018G508a3544O668
1509f876K354D52M295h878k430e199A1733B701b3404J306h021a503e86j0828A4081
1493A8820D165L068N162P166d487Q99B9374K316B679L381A025P962J5761I312
1478A2527k351m678e704A5203C576a3290f124F132N218K503K533a3576m338N437
1464a2477B173K08a0637j999D328a1666j1698j032Q835J690K960d089A0188R803
1450A9991I3e884E486J6778n445m989d696j9815a0618j4g62D332j315N554n5A350
1433A5085J969e233n679H216A606a8297M409e958B8473n576a2310D705A237L431
1419D668J2712a909m498j0576G210j088c347j0476R40f045j2952H03J5753M438
1405B0994l772N135B381M245N601A656M629L794a0830R5n403c933A1151P93c592
1389c728G382C436R244h196m198K111C238g518c260m824j2095R558A765a2899
1374C797cA1174L092a2625Q91E544j875d530j3583c947A2519A670f775C010d329
1358c0296i003A3738J819D890g657I026P851a0837D91J1838e155C68g065J757
1344e308B120b1046D245a448j3849H80C32d36j1347n799q16J770k1j141g57r468
1328a0225l428J148M831c522H086f773p772B721h413C26R998n05E49a2782J481
1313a1301e42n874k137k423j0771P046L749B838K76a111o586F35a8831M678a393
1297A0283e754n049M994E809e891A776a3983M187L630j5255J89C900J5712h53
1282F326h436b944l074q02B4643q345Q779n511a0074M448o805b127j0154a12p951
1267h063k500j6206L067g491F120a0503a728o995G54O492b015E988M829B475i193
1251b326n04o615j1579J994j4722L961R263R09d759A0039N300E631i50j0447l579
1236a4976j0943A349L034A971a431A2695E359J0381j02b5454a0745D142K4792
1223B8934j3368L047N751c296j08J549A4786J4806B938d692d75A8176D177j353
1209B824e029q563B999B34J3041d271E601Q105o33b798n114j5396p965J1367d980
1193D472c272j4476Q10A6f077q349L208N47l140J243k02o869j3630a4311b064
1177d845j1111j276j9397a6006j188h134A0398J2161m358p070O812M654A0129
1163A8018D319N916a8912Q258A0011b841m213j1872Q211C026l65f09j38q547j6482
1148b5776h024j558p094M891o715O118K307l395E883d684j5316Q761L897A3128
1133A3411D141c818k959G913R570B027b002j151n69A4965o838J798G69a1141o374
1118a7515D537j486i750k2882k831J0984e713j7582O773j7621R122n937C057a2919
1103a6842j1046J2595I379B932O068j116j679O412a748m502n054p706e644B6206
1088B55a3985p22E884k143j178h415m356j8753l295f69A4933F882e265j1532b626
1072b08k7525M988N125C290J1437o274k642a3456j8476J0426E13L0450j0083n551
1058A5329c170n480A1293h201c418o460j5359g630I916N231Q454I293d185i61
1043e510D326J6796H210B225P078a1907j2547g157j1031o276p279J1840o669a1317
1028G109e971p828p395P146o545R56h163j6924j907k597J3662p659Q920c860m040
1013g900j401A193N483l151J4482M96p164N944l67D564i678C48N352J5381o648
998A4433a1598j0807K332N904l82J514M526J426D941O379K798a1557K052L643
984e862j3870O293m173P440m008O734A4296n524h455l0000O822A379m32a2110
969a2731k659r387N208K086N011K671K66j6248O661j2861J3758G091d632A706
954D873c709j2209k565m653M312k334B057J039Q191a6784K080L248c883j2667
940a6550O693d376i5A0185J3705F962d852r785K144J936e004j3055e001l875r068
925a7944k126R331J554o608K525m809G772C279a8710j3669N67P617K287a0541
910g2j1655o79n037N12e520E248j766a3595g08l368j3321k0056J6093a286l522
895d808l892o800j421k811n588h861p20j071G023k398P51d389q66B850R92b583
878a1998F30J1971e84j3347l41N62b17n344B6744r744a0251J140q775Q488a177
862G34i227L308r439n190K792o923J175h236L900j2371O147n459l966r748a0281
846F34J345c585A256A78Q150a5051j8414m362a8541j1446o452a6893d986l610
832h596j8181q424N030c270C277A488N268F09a1607l818j487j420g183k1834g158
816E870L871a5069p810a1361B1206D236i940m39l964L241e083A491a1850r237
802b1087P952k954q15q21A4374J656a638l806C106b363p189o467M780j5414a1707
786f017n102A1162J1227n392a234j7452P051a892k404B752L820D35b5463P144
772a8319h291j4948Q718A4702a291j2725j2403J3133N734j0045J91L722L89r619
758b2914J0384b497r776o486a372j207M69q675c379H816N283C593K2883n229H910
742F673g086k049p920J60M300J698J780m162k455e752A4706k448A971f222A4033
726F525i251L036j5263J0645B128f582l983J602n9d98I967e789j6561m515R496
711a7369L017j0393k798j0165a0619j5064N964Q607I883D914n02b3647R543L877
697a0227j2399J725k937q836J4544P727r40k8597J0008J1901e678qJ879k430K785
682c452j3262n762R101q185j7135a6724f969q831p002A7200o881C174a2247j5319
668b7566K600j7197L912L575p482J8914p865O350g228q540n70B665M114m08N194
653A1565D924a1954J243a67p119D378A194K505g610A9681P885H462g013p786O52
638a4147f836j1906N487k7353J2474e708q825f460l55j5998j6968J3316d660B0588
623B1727q441N651G997R037B148f230q088e880a025k2009r482J3616L781e307
608A555j16d126n844o908E2a8232N613f72H496i54j718r441B36a648p763d80G297
590H191N026E426O288l607i776j7530Q568P478A50b5325Q088j587A74a3853m51
575a4304k687c476j0308b713j9848o058E63M387a2969p87b084q033k888N84p364
560a9785e721I397i635K723H655L719O358I110c688k888b096m296F539a2220n804
545a8024j782n393k705m938J2584B351a8259K106N012M621J079q551L762j2543
531b2773q825p68a5286D545a4630k147g719p25i58A0892a5295j85q851j0788J2649
516b2470d258A963a1721a665A7807a6180J700L670R46j892j213j43J331n875f050
500i491k6883L267K276K717M303m550j1871N459j690a7798K56N117G390O149h995
484a1743N404D05a0608j072j1223J963e535i70j3614p933d020A1942h475H12f348
468i686o082j8762M920J2183M616l698m892O477j6138M698N521A191L080f440
453a2547j4322N897l466a0349j981c343j0384F334O220g423K999j4918d681E852
438A2166a324E775L819J787a0561c222m79p383j5910r765l71J5848a0271m039
424a4310d299o227k7528L482i116F241L453i29o991m256N387n087e781C420a773
408a0072r04k60o024Q543a707I442l421k338a636p278r2F06a2170k215L635q617
392a9367P967b315n613l128j7542j057J1100q063d704m39l000F206a1347l439
378a4786n836L350m967j7848N815a4691j8368j0570K523J2652M284J0363M158
365i649B87h180n242K837D882a5969j2757l631K445N856a0096c825j0795e387
350D912L339b3886g635D870a0954j0213Q679m4M195K855l726p804j454K386L877
335a2203N878n162N520j8050R418r519j917n023n797a4081p181O421m15j9406
321c4662J0426o961L063a2406p239L241j902n86h825A048J8081D351b1927J909
307b0018b023j8366O994k990c881j1649L106j4200M549J449p293O025J0159m968
293a6703j0733o194R836j185j1149a4505m530j5591M402k93J1667l774m30k0898
279d3952J3455a4814e258j1400c519k5604J2011M877j1104K108g427j8614J0165
266a5876J963B188a507p41G74i193K194j6291L905a652A0663K930g395j2038L470
251a5963N085j456K375n100E415C19K474a1340J776c193j0882K655l848l880B162
235H762J750m567p47d339j5939l104N731k9919J0751k188J2156J0428j5186a3933
220e459j6670j753J1013o58j554j2674a1592a449j30j1018j0982J1342k882b069
205b757j8513K930P988j2566M187j8746J4005M285M361l326f546j0784k055o777
191b6162J659j735C45d85F12h193m608k817d739j6233q239J4280m16j2787O057
176b2077L123f956a638a92k3492n725J0718a090n220j4824L168r963O009j7870
162c9790J0135Q591J968K886e527O91j2650j0549J0665f930L046a612A042a007
147B376e438A830e431a924j9374J211P273e271n349m853m78q207M245J123l374
132b2164j0916M112a1367R0M46j1299j1077a6038M862j234q427k321N855d090
117e456r688o797o573e915r37j2128I072a2152q820L845b401n190E866O379k652
102I593a0435o634l007j0643J0951N631j3081Q324M08K842K269l578J461q087
88b3579R897l171Q074o417j968L594L968j4211K385m807n682o810Q898k370R38
73c1261Q235h151j2168j1183l896p215L397R858P474q964k832J1797m279P37J807
58b3618q937P597O589f123n511c969J269p329j2352K552O061l234P076b652r276
43a1928e759j4298r281Q306N459p504K841K09q417a2366o059j418j4953J895Q203
28b4698O834Q72o937j4658J2891J453K144O033L348K793B224e662j6554O066l938
13b0088n268M370j275K065j3763a0411J307c545A285J564h085j1124Q136
0a1073
##END=
